/*---------------------------------------------------------------------------*\
| =========                 |                                                 |
| \\      /  F ield         | OpenFOAM: The Open Source CFD Toolbox           |
|  \\    /   O peration     | Version:  v2012                                 |
|   \\  /    A nd           | Website:  www.openfoam.com                      |
|    \\/     M anipulation  |                                                 |
\*---------------------------------------------------------------------------*/
Build  : _7bdb509494-20201222 OPENFOAM=2012
Arch   : "LSB;label=32;scalar=64"
Exec   : icoFoam
Date   : Oct 05 2022
Time   : 15:03:21
Host   : K5762147
PID    : 965
I/O    : uncollated
Case   : /home/han/OpenFOAM/Github_files/thin_pipeflow_snappyHexMesh/snappy_pipe_potential
nProcs : 1
trapFpe: Floating point exception trapping enabled (FOAM_SIGFPE).
fileModificationChecking : Monitoring run-time modified files using timeStampMaster (fileModificationSkew 5, maxFileModificationPolls 20)
allowSystemOperations : Allowing user-supplied system call operations

// * * * * * * * * * * * * * * * * * * * * * * * * * * * * * * * * * * * * * //
Create time

Create mesh for time = 34


PISO: Operating solver in PISO mode

Reading transportProperties

Reading field p

Reading field U

Reading/calculating face flux field phi


Starting time loop

Time = 34.5

Courant Number mean: 0.000287604 max: 0.272346
smoothSolver:  Solving for Ux, Initial residual = 0.00475752, Final residual = 7.79291e-08, No Iterations 1
smoothSolver:  Solving for Uy, Initial residual = 0.00475733, Final residual = 7.79264e-08, No Iterations 1
smoothSolver:  Solving for Uz, Initial residual = 0.00108068, Final residual = 1.40173e-08, No Iterations 1
DICPCG:  Solving for p, Initial residual = 0.000947743, Final residual = 4.69832e-05, No Iterations 4
time step continuity errors : sum local = 4.43454e-11, global = 1.49134e-12, cumulative = 1.97282e-10
DICPCG:  Solving for p, Initial residual = 4.82881e-05, Final residual = 9.03329e-07, No Iterations 579
time step continuity errors : sum local = 8.52534e-13, global = 1.56307e-14, cumulative = 1.97298e-10
ExecutionTime = 3.53 s  ClockTime = 3 s

Time = 35

Courant Number mean: 0.000287578 max: 0.272346
smoothSolver:  Solving for Ux, Initial residual = 0.00467447, Final residual = 7.6074e-08, No Iterations 1
smoothSolver:  Solving for Uy, Initial residual = 0.0046736, Final residual = 7.60704e-08, No Iterations 1
smoothSolver:  Solving for Uz, Initial residual = 0.0010665, Final residual = 1.37382e-08, No Iterations 1
DICPCG:  Solving for p, Initial residual = 0.000459764, Final residual = 2.19693e-05, No Iterations 14
time step continuity errors : sum local = 2.06492e-11, global = 9.41283e-13, cumulative = 1.98239e-10
DICPCG:  Solving for p, Initial residual = 2.34757e-05, Final residual = 9.62012e-07, No Iterations 567
time step continuity errors : sum local = 9.04109e-13, global = 8.99165e-15, cumulative = 1.98248e-10
ExecutionTime = 7.03 s  ClockTime = 7 s

Time = 35.5

Courant Number mean: 0.000287552 max: 0.272346
smoothSolver:  Solving for Ux, Initial residual = 0.00458966, Final residual = 7.45344e-08, No Iterations 1
smoothSolver:  Solving for Uy, Initial residual = 0.00458942, Final residual = 7.45323e-08, No Iterations 1
smoothSolver:  Solving for Uz, Initial residual = 0.00105262, Final residual = 1.34682e-08, No Iterations 1
DICPCG:  Solving for p, Initial residual = 0.000310226, Final residual = 1.54928e-05, No Iterations 554
time step continuity errors : sum local = 1.44997e-11, global = 4.57392e-13, cumulative = 1.98706e-10
DICPCG:  Solving for p, Initial residual = 1.703e-05, Final residual = 9.81496e-07, No Iterations 49
time step continuity errors : sum local = 9.14881e-13, global = 5.73195e-14, cumulative = 1.98763e-10
ExecutionTime = 9.83 s  ClockTime = 9 s

Time = 36

Courant Number mean: 0.000287526 max: 0.272346
smoothSolver:  Solving for Ux, Initial residual = 0.00451031, Final residual = 7.28711e-08, No Iterations 1
smoothSolver:  Solving for Uy, Initial residual = 0.00451006, Final residual = 7.28682e-08, No Iterations 1
smoothSolver:  Solving for Uz, Initial residual = 0.00103915, Final residual = 1.32079e-08, No Iterations 1
DICPCG:  Solving for p, Initial residual = 0.000305366, Final residual = 1.50164e-05, No Iterations 554
time step continuity errors : sum local = 1.39958e-11, global = 3.8448e-13, cumulative = 1.99147e-10
DICPCG:  Solving for p, Initial residual = 1.65188e-05, Final residual = 9.90563e-07, No Iterations 48
time step continuity errors : sum local = 9.19521e-13, global = 5.35707e-14, cumulative = 1.99201e-10
ExecutionTime = 13.02 s  ClockTime = 13 s

Time = 36.5

Courant Number mean: 0.000287501 max: 0.272346
smoothSolver:  Solving for Ux, Initial residual = 0.00443328, Final residual = 7.13222e-08, No Iterations 1
smoothSolver:  Solving for Uy, Initial residual = 0.00443306, Final residual = 7.13218e-08, No Iterations 1
smoothSolver:  Solving for Uz, Initial residual = 0.00102603, Final residual = 1.29572e-08, No Iterations 1
DICPCG:  Solving for p, Initial residual = 0.000302758, Final residual = 1.48692e-05, No Iterations 554
time step continuity errors : sum local = 1.38014e-11, global = 3.9548e-13, cumulative = 1.99596e-10
DICPCG:  Solving for p, Initial residual = 1.63668e-05, Final residual = 9.94233e-07, No Iterations 47
time step continuity errors : sum local = 9.19176e-13, global = 5.0401e-14, cumulative = 1.99647e-10
ExecutionTime = 15.68 s  ClockTime = 15 s

Time = 37

Courant Number mean: 0.000287475 max: 0.272346
smoothSolver:  Solving for Ux, Initial residual = 0.00435862, Final residual = 6.98044e-08, No Iterations 1
smoothSolver:  Solving for Uy, Initial residual = 0.0043584, Final residual = 6.98022e-08, No Iterations 1
smoothSolver:  Solving for Uz, Initial residual = 0.00101328, Final residual = 1.27145e-08, No Iterations 1
DICPCG:  Solving for p, Initial residual = 0.000300405, Final residual = 1.4819e-05, No Iterations 554
time step continuity errors : sum local = 1.36989e-11, global = 3.93408e-13, cumulative = 2.0004e-10
DICPCG:  Solving for p, Initial residual = 1.62694e-05, Final residual = 9.80404e-07, No Iterations 47
time step continuity errors : sum local = 9.02739e-13, global = 4.97553e-14, cumulative = 2.0009e-10
ExecutionTime = 18.86 s  ClockTime = 18 s

Time = 37.5

Courant Number mean: 0.000287449 max: 0.272346
smoothSolver:  Solving for Ux, Initial residual = 0.00428609, Final residual = 6.83247e-08, No Iterations 1
smoothSolver:  Solving for Uy, Initial residual = 0.00428588, Final residual = 6.83223e-08, No Iterations 1
smoothSolver:  Solving for Uz, Initial residual = 0.00100085, Final residual = 1.24801e-08, No Iterations 1
DICPCG:  Solving for p, Initial residual = 0.000300139, Final residual = 1.4712e-05, No Iterations 554
time step continuity errors : sum local = 1.35452e-11, global = 3.88108e-13, cumulative = 2.00478e-10
DICPCG:  Solving for p, Initial residual = 1.617e-05, Final residual = 9.65063e-07, No Iterations 47
time step continuity errors : sum local = 8.85068e-13, global = 4.95651e-14, cumulative = 2.00528e-10
ExecutionTime = 21.32 s  ClockTime = 21 s

Time = 38

Courant Number mean: 0.000287423 max: 0.272346
smoothSolver:  Solving for Ux, Initial residual = 0.0042156, Final residual = 6.69055e-08, No Iterations 1
smoothSolver:  Solving for Uy, Initial residual = 0.00421539, Final residual = 6.69055e-08, No Iterations 1
smoothSolver:  Solving for Uz, Initial residual = 0.000988735, Final residual = 1.22535e-08, No Iterations 1
DICPCG:  Solving for p, Initial residual = 0.000298241, Final residual = 1.44075e-05, No Iterations 554
time step continuity errors : sum local = 1.32119e-11, global = 3.77066e-13, cumulative = 2.00905e-10
DICPCG:  Solving for p, Initial residual = 1.58316e-05, Final residual = 9.96624e-07, No Iterations 46
time step continuity errors : sum local = 9.10404e-13, global = 4.24834e-14, cumulative = 2.00947e-10
ExecutionTime = 24.68 s  ClockTime = 24 s

Time = 38.5

Courant Number mean: 0.000287397 max: 0.272346
smoothSolver:  Solving for Ux, Initial residual = 0.00414709, Final residual = 6.55286e-08, No Iterations 1
smoothSolver:  Solving for Uy, Initial residual = 0.00414688, Final residual = 6.55261e-08, No Iterations 1
smoothSolver:  Solving for Uz, Initial residual = 0.000976943, Final residual = 1.20342e-08, No Iterations 1
DICPCG:  Solving for p, Initial residual = 0.000295854, Final residual = 1.46973e-05, No Iterations 554
time step continuity errors : sum local = 1.34245e-11, global = 3.78025e-13, cumulative = 2.01325e-10
DICPCG:  Solving for p, Initial residual = 1.60852e-05, Final residual = 9.55687e-07, No Iterations 47
time step continuity errors : sum local = 8.6962e-13, global = 4.84732e-14, cumulative = 2.01374e-10
ExecutionTime = 27.27 s  ClockTime = 27 s

Time = 39

Courant Number mean: 0.000287371 max: 0.272346
smoothSolver:  Solving for Ux, Initial residual = 0.00408051, Final residual = 6.41789e-08, No Iterations 1
smoothSolver:  Solving for Uy, Initial residual = 0.00408031, Final residual = 6.41772e-08, No Iterations 1
smoothSolver:  Solving for Uz, Initial residual = 0.00096546, Final residual = 1.18217e-08, No Iterations 1
DICPCG:  Solving for p, Initial residual = 0.000295211, Final residual = 1.41784e-05, No Iterations 554
time step continuity errors : sum local = 1.29003e-11, global = 3.6078e-13, cumulative = 2.01735e-10
DICPCG:  Solving for p, Initial residual = 1.55481e-05, Final residual = 9.46532e-07, No Iterations 46
time step continuity errors : sum local = 8.57977e-13, global = 4.10436e-14, cumulative = 2.01776e-10
ExecutionTime = 30.45 s  ClockTime = 30 s

Time = 39.5

Courant Number mean: 0.000287345 max: 0.272346
smoothSolver:  Solving for Ux, Initial residual = 0.00401575, Final residual = 6.28932e-08, No Iterations 1
smoothSolver:  Solving for Uy, Initial residual = 0.00401556, Final residual = 6.28906e-08, No Iterations 1
smoothSolver:  Solving for Uz, Initial residual = 0.000954254, Final residual = 1.16166e-08, No Iterations 1
DICPCG:  Solving for p, Initial residual = 0.000293065, Final residual = 1.42384e-05, No Iterations 554
time step continuity errors : sum local = 1.29051e-11, global = 3.6305e-13, cumulative = 2.02139e-10
DICPCG:  Solving for p, Initial residual = 1.55987e-05, Final residual = 9.50269e-07, No Iterations 46
time step continuity errors : sum local = 8.58089e-13, global = 4.06499e-14, cumulative = 2.02179e-10
ExecutionTime = 33.06 s  ClockTime = 33 s

Time = 40

Courant Number mean: 0.000287319 max: 0.272346
smoothSolver:  Solving for Ux, Initial residual = 0.00395277, Final residual = 6.162e-08, No Iterations 1
smoothSolver:  Solving for Uy, Initial residual = 0.00395258, Final residual = 6.16158e-08, No Iterations 1
smoothSolver:  Solving for Uz, Initial residual = 0.000943343, Final residual = 1.14174e-08, No Iterations 1
DICPCG:  Solving for p, Initial residual = 0.000291153, Final residual = 1.40287e-05, No Iterations 554
time step continuity errors : sum local = 1.26668e-11, global = 3.60203e-13, cumulative = 2.02539e-10
DICPCG:  Solving for p, Initial residual = 1.53722e-05, Final residual = 9.38663e-07, No Iterations 46
time step continuity errors : sum local = 8.44438e-13, global = 4.00371e-14, cumulative = 2.0258e-10
ExecutionTime = 36.22 s  ClockTime = 36 s

Time = 40.5

Courant Number mean: 0.000287293 max: 0.272346
smoothSolver:  Solving for Ux, Initial residual = 0.00389149, Final residual = 6.03799e-08, No Iterations 1
smoothSolver:  Solving for Uy, Initial residual = 0.00389132, Final residual = 6.03747e-08, No Iterations 1
smoothSolver:  Solving for Uz, Initial residual = 0.000932719, Final residual = 1.12246e-08, No Iterations 1
DICPCG:  Solving for p, Initial residual = 0.000289431, Final residual = 1.39642e-05, No Iterations 554
time step continuity errors : sum local = 1.25614e-11, global = 3.51571e-13, cumulative = 2.02931e-10
DICPCG:  Solving for p, Initial residual = 1.53052e-05, Final residual = 9.28841e-07, No Iterations 46
time step continuity errors : sum local = 8.32507e-13, global = 3.94816e-14, cumulative = 2.02971e-10
ExecutionTime = 38.78 s  ClockTime = 38 s

Time = 41

Courant Number mean: 0.000287267 max: 0.272346
smoothSolver:  Solving for Ux, Initial residual = 0.00383184, Final residual = 5.9185e-08, No Iterations 1
smoothSolver:  Solving for Uy, Initial residual = 0.00383166, Final residual = 5.91798e-08, No Iterations 1
smoothSolver:  Solving for Uz, Initial residual = 0.00092235, Final residual = 1.10376e-08, No Iterations 1
DICPCG:  Solving for p, Initial residual = 0.000287453, Final residual = 1.37624e-05, No Iterations 554
time step continuity errors : sum local = 1.2334e-11, global = 3.45766e-13, cumulative = 2.03316e-10
DICPCG:  Solving for p, Initial residual = 1.50811e-05, Final residual = 9.72276e-07, No Iterations 45
time step continuity errors : sum local = 8.68239e-13, global = 3.78669e-14, cumulative = 2.03354e-10
ExecutionTime = 41.84 s  ClockTime = 41 s

Time = 41.5

Courant Number mean: 0.000287241 max: 0.272346
smoothSolver:  Solving for Ux, Initial residual = 0.0037737, Final residual = 5.80343e-08, No Iterations 1
smoothSolver:  Solving for Uy, Initial residual = 0.00377353, Final residual = 5.80272e-08, No Iterations 1
smoothSolver:  Solving for Uz, Initial residual = 0.00091222, Final residual = 1.08565e-08, No Iterations 1
DICPCG:  Solving for p, Initial residual = 0.000286627, Final residual = 1.38073e-05, No Iterations 554
time step continuity errors : sum local = 1.23288e-11, global = 3.47724e-13, cumulative = 2.03702e-10
DICPCG:  Solving for p, Initial residual = 1.51247e-05, Final residual = 9.83298e-07, No Iterations 45
time step continuity errors : sum local = 8.74892e-13, global = 3.78448e-14, cumulative = 2.0374e-10
ExecutionTime = 44.41 s  ClockTime = 44 s

Time = 42

Courant Number mean: 0.000287215 max: 0.272346
smoothSolver:  Solving for Ux, Initial residual = 0.00371704, Final residual = 5.69079e-08, No Iterations 1
smoothSolver:  Solving for Uy, Initial residual = 0.00371687, Final residual = 5.69012e-08, No Iterations 1
smoothSolver:  Solving for Uz, Initial residual = 0.00090232, Final residual = 1.06808e-08, No Iterations 1
DICPCG:  Solving for p, Initial residual = 0.000284279, Final residual = 1.35922e-05, No Iterations 554
time step continuity errors : sum local = 1.20926e-11, global = 3.41976e-13, cumulative = 2.04082e-10
DICPCG:  Solving for p, Initial residual = 1.48812e-05, Final residual = 9.69136e-07, No Iterations 45
time step continuity errors : sum local = 8.59187e-13, global = 3.73636e-14, cumulative = 2.04119e-10
ExecutionTime = 47.47 s  ClockTime = 47 s

Time = 42.5

Courant Number mean: 0.000287189 max: 0.272346
smoothSolver:  Solving for Ux, Initial residual = 0.00366186, Final residual = 5.58155e-08, No Iterations 1
smoothSolver:  Solving for Uy, Initial residual = 0.0036617, Final residual = 5.58065e-08, No Iterations 1
smoothSolver:  Solving for Uz, Initial residual = 0.000892642, Final residual = 1.05104e-08, No Iterations 1
DICPCG:  Solving for p, Initial residual = 0.000282323, Final residual = 1.32393e-05, No Iterations 554
time step continuity errors : sum local = 1.17362e-11, global = 3.40255e-13, cumulative = 2.04459e-10
DICPCG:  Solving for p, Initial residual = 1.45246e-05, Final residual = 9.50053e-07, No Iterations 45
time step continuity errors : sum local = 8.39269e-13, global = 3.64118e-14, cumulative = 2.04496e-10
ExecutionTime = 50.04 s  ClockTime = 50 s

Time = 43

Courant Number mean: 0.000287163 max: 0.272346
smoothSolver:  Solving for Ux, Initial residual = 0.00360807, Final residual = 5.47368e-08, No Iterations 1
smoothSolver:  Solving for Uy, Initial residual = 0.00360791, Final residual = 5.47284e-08, No Iterations 1
smoothSolver:  Solving for Uz, Initial residual = 0.000883179, Final residual = 1.03447e-08, No Iterations 1
DICPCG:  Solving for p, Initial residual = 0.0002803, Final residual = 1.32439e-05, No Iterations 554
time step continuity errors : sum local = 1.16986e-11, global = 3.3167e-13, cumulative = 2.04827e-10
DICPCG:  Solving for p, Initial residual = 1.45008e-05, Final residual = 9.90941e-07, No Iterations 44
time step continuity errors : sum local = 8.72305e-13, global = 3.51851e-14, cumulative = 2.04863e-10
ExecutionTime = 53.1 s  ClockTime = 53 s

Time = 43.5

Courant Number mean: 0.000287136 max: 0.272346
smoothSolver:  Solving for Ux, Initial residual = 0.00355565, Final residual = 5.37053e-08, No Iterations 1
smoothSolver:  Solving for Uy, Initial residual = 0.00355549, Final residual = 5.36982e-08, No Iterations 1
smoothSolver:  Solving for Uz, Initial residual = 0.000873923, Final residual = 1.01838e-08, No Iterations 1
DICPCG:  Solving for p, Initial residual = 0.000279178, Final residual = 1.38702e-05, No Iterations 553
time step continuity errors : sum local = 1.22086e-11, global = 3.69257e-13, cumulative = 2.05232e-10
DICPCG:  Solving for p, Initial residual = 1.50805e-05, Final residual = 9.69121e-07, No Iterations 47
time step continuity errors : sum local = 8.50123e-13, global = 4.89693e-14, cumulative = 2.05281e-10
ExecutionTime = 55.69 s  ClockTime = 55 s

Time = 44

Courant Number mean: 0.00028711 max: 0.272346
smoothSolver:  Solving for Ux, Initial residual = 0.00350452, Final residual = 5.2681e-08, No Iterations 1
smoothSolver:  Solving for Uy, Initial residual = 0.00350436, Final residual = 5.26753e-08, No Iterations 1
smoothSolver:  Solving for Uz, Initial residual = 0.00086487, Final residual = 1.00274e-08, No Iterations 1
DICPCG:  Solving for p, Initial residual = 0.000277264, Final residual = 1.37817e-05, No Iterations 553
time step continuity errors : sum local = 1.20884e-11, global = 3.55819e-13, cumulative = 2.05637e-10
DICPCG:  Solving for p, Initial residual = 1.49829e-05, Final residual = 9.7711e-07, No Iterations 46
time step continuity errors : sum local = 8.54163e-13, global = 4.10078e-14, cumulative = 2.05678e-10
ExecutionTime = 58.72 s  ClockTime = 58 s

Time = 44.5

Courant Number mean: 0.000287084 max: 0.272346
smoothSolver:  Solving for Ux, Initial residual = 0.00345464, Final residual = 5.17033e-08, No Iterations 1
smoothSolver:  Solving for Uy, Initial residual = 0.00345448, Final residual = 5.1699e-08, No Iterations 1
smoothSolver:  Solving for Uz, Initial residual = 0.000856009, Final residual = 9.87568e-09, No Iterations 1
DICPCG:  Solving for p, Initial residual = 0.000275724, Final residual = 1.3041e-05, No Iterations 554
time step continuity errors : sum local = 1.13991e-11, global = 3.07382e-13, cumulative = 2.05985e-10
DICPCG:  Solving for p, Initial residual = 1.42253e-05, Final residual = 9.79863e-07, No Iterations 41
time step continuity errors : sum local = 8.53635e-13, global = 3.55435e-14, cumulative = 2.06021e-10
ExecutionTime = 61.26 s  ClockTime = 61 s

Time = 45

Courant Number mean: 0.000287058 max: 0.272346
smoothSolver:  Solving for Ux, Initial residual = 0.003406, Final residual = 5.07399e-08, No Iterations 1
smoothSolver:  Solving for Uy, Initial residual = 0.00340584, Final residual = 5.07362e-08, No Iterations 1
smoothSolver:  Solving for Uz, Initial residual = 0.000847337, Final residual = 9.72779e-09, No Iterations 1
DICPCG:  Solving for p, Initial residual = 0.000274451, Final residual = 1.35838e-05, No Iterations 553
time step continuity errors : sum local = 1.18328e-11, global = 3.74542e-13, cumulative = 2.06395e-10
DICPCG:  Solving for p, Initial residual = 1.47318e-05, Final residual = 9.65504e-07, No Iterations 47
time step continuity errors : sum local = 8.38277e-13, global = 4.75317e-14, cumulative = 2.06443e-10
ExecutionTime = 64.35 s  ClockTime = 64 s

Time = 45.5

Courant Number mean: 0.000287032 max: 0.272346
smoothSolver:  Solving for Ux, Initial residual = 0.0033585, Final residual = 4.98305e-08, No Iterations 1
smoothSolver:  Solving for Uy, Initial residual = 0.00335835, Final residual = 4.98274e-08, No Iterations 1
smoothSolver:  Solving for Uz, Initial residual = 0.00083886, Final residual = 9.58398e-09, No Iterations 1
DICPCG:  Solving for p, Initial residual = 0.00027498, Final residual = 1.35839e-05, No Iterations 552
time step continuity errors : sum local = 1.17928e-11, global = 3.69875e-13, cumulative = 2.06813e-10
DICPCG:  Solving for p, Initial residual = 1.46994e-05, Final residual = 9.80794e-07, No Iterations 49
time step continuity errors : sum local = 8.48684e-13, global = 5.26945e-14, cumulative = 2.06865e-10
ExecutionTime = 66.97 s  ClockTime = 67 s

Time = 46

Courant Number mean: 0.000287006 max: 0.272346
smoothSolver:  Solving for Ux, Initial residual = 0.00331211, Final residual = 4.89192e-08, No Iterations 1
smoothSolver:  Solving for Uy, Initial residual = 0.00331196, Final residual = 4.89187e-08, No Iterations 1
smoothSolver:  Solving for Uz, Initial residual = 0.000830564, Final residual = 9.44408e-09, No Iterations 1
DICPCG:  Solving for p, Initial residual = 0.000276045, Final residual = 1.34393e-05, No Iterations 553
time step continuity errors : sum local = 1.1628e-11, global = 3.46098e-13, cumulative = 2.07211e-10
DICPCG:  Solving for p, Initial residual = 1.45691e-05, Final residual = 9.65394e-07, No Iterations 46
time step continuity errors : sum local = 8.32572e-13, global = 3.91401e-14, cumulative = 2.07251e-10
ExecutionTime = 70.07 s  ClockTime = 70 s

Time = 46.5

Courant Number mean: 0.00028698 max: 0.272346
smoothSolver:  Solving for Ux, Initial residual = 0.00326674, Final residual = 4.80438e-08, No Iterations 1
smoothSolver:  Solving for Uy, Initial residual = 0.00326659, Final residual = 4.80423e-08, No Iterations 1
smoothSolver:  Solving for Uz, Initial residual = 0.000822438, Final residual = 9.30797e-09, No Iterations 1
DICPCG:  Solving for p, Initial residual = 0.000271202, Final residual = 1.35046e-05, No Iterations 552
time step continuity errors : sum local = 1.16455e-11, global = 3.79576e-13, cumulative = 2.0763e-10
DICPCG:  Solving for p, Initial residual = 1.45638e-05, Final residual = 9.97263e-07, No Iterations 49
time step continuity errors : sum local = 8.57221e-13, global = 5.59943e-14, cumulative = 2.07686e-10
ExecutionTime = 72.61 s  ClockTime = 72 s

Time = 47

Courant Number mean: 0.000286954 max: 0.272346
smoothSolver:  Solving for Ux, Initial residual = 0.00322255, Final residual = 4.71811e-08, No Iterations 1
smoothSolver:  Solving for Uy, Initial residual = 0.00322242, Final residual = 4.71798e-08, No Iterations 1
smoothSolver:  Solving for Uz, Initial residual = 0.000814481, Final residual = 9.17545e-09, No Iterations 1
DICPCG:  Solving for p, Initial residual = 0.00026892, Final residual = 1.30084e-05, No Iterations 553
time step continuity errors : sum local = 1.11806e-11, global = 3.34967e-13, cumulative = 2.08021e-10
DICPCG:  Solving for p, Initial residual = 1.41186e-05, Final residual = 9.89733e-07, No Iterations 45
time step continuity errors : sum local = 8.47959e-13, global = 3.83116e-14, cumulative = 2.08059e-10
ExecutionTime = 75.72 s  ClockTime = 75 s

Time = 47.5

Courant Number mean: 0.000286928 max: 0.272346
smoothSolver:  Solving for Ux, Initial residual = 0.00317933, Final residual = 4.63422e-08, No Iterations 1
smoothSolver:  Solving for Uy, Initial residual = 0.0031792, Final residual = 4.6341e-08, No Iterations 1
smoothSolver:  Solving for Uz, Initial residual = 0.000806687, Final residual = 9.04637e-09, No Iterations 1
DICPCG:  Solving for p, Initial residual = 0.000266631, Final residual = 1.28003e-05, No Iterations 553
time step continuity errors : sum local = 1.09657e-11, global = 3.33125e-13, cumulative = 2.08392e-10
DICPCG:  Solving for p, Initial residual = 1.39108e-05, Final residual = 9.91607e-07, No Iterations 45
time step continuity errors : sum local = 8.46814e-13, global = 3.77053e-14, cumulative = 2.0843e-10
ExecutionTime = 78.27 s  ClockTime = 78 s

Time = 48

Courant Number mean: 0.000286902 max: 0.272346
smoothSolver:  Solving for Ux, Initial residual = 0.00313714, Final residual = 4.55265e-08, No Iterations 1
smoothSolver:  Solving for Uy, Initial residual = 0.003137, Final residual = 4.55253e-08, No Iterations 1
smoothSolver:  Solving for Uz, Initial residual = 0.000799078, Final residual = 8.9205e-09, No Iterations 1
DICPCG:  Solving for p, Initial residual = 0.000264302, Final residual = 1.28426e-05, No Iterations 553
time step continuity errors : sum local = 1.09663e-11, global = 3.26397e-13, cumulative = 2.08757e-10
DICPCG:  Solving for p, Initial residual = 1.39218e-05, Final residual = 9.7744e-07, No Iterations 45
time step continuity errors : sum local = 8.32035e-13, global = 3.80942e-14, cumulative = 2.08795e-10
ExecutionTime = 81.48 s  ClockTime = 81 s

Time = 48.5

Courant Number mean: 0.000286876 max: 0.272346
smoothSolver:  Solving for Ux, Initial residual = 0.00309589, Final residual = 4.4734e-08, No Iterations 1
smoothSolver:  Solving for Uy, Initial residual = 0.00309576, Final residual = 4.4732e-08, No Iterations 1
smoothSolver:  Solving for Uz, Initial residual = 0.000791623, Final residual = 8.79791e-09, No Iterations 1
DICPCG:  Solving for p, Initial residual = 0.000264153, Final residual = 1.27692e-05, No Iterations 553
time step continuity errors : sum local = 1.08686e-11, global = 3.0925e-13, cumulative = 2.09104e-10
DICPCG:  Solving for p, Initial residual = 1.38649e-05, Final residual = 9.72987e-07, No Iterations 45
time step continuity errors : sum local = 8.25608e-13, global = 3.71848e-14, cumulative = 2.09141e-10
ExecutionTime = 84.19 s  ClockTime = 84 s

Time = 49

Courant Number mean: 0.00028685 max: 0.272346
smoothSolver:  Solving for Ux, Initial residual = 0.00305554, Final residual = 4.39599e-08, No Iterations 1
smoothSolver:  Solving for Uy, Initial residual = 0.00305542, Final residual = 4.39585e-08, No Iterations 1
smoothSolver:  Solving for Uz, Initial residual = 0.000784332, Final residual = 8.67838e-09, No Iterations 1
DICPCG:  Solving for p, Initial residual = 0.000260798, Final residual = 1.27077e-05, No Iterations 553
time step continuity errors : sum local = 1.07818e-11, global = 3.11908e-13, cumulative = 2.09453e-10
DICPCG:  Solving for p, Initial residual = 1.37768e-05, Final residual = 9.96616e-07, No Iterations 44
time step continuity errors : sum local = 8.42991e-13, global = 3.56413e-14, cumulative = 2.09489e-10
ExecutionTime = 87.36 s  ClockTime = 87 s

Time = 49.5

Courant Number mean: 0.000286823 max: 0.272346
smoothSolver:  Solving for Ux, Initial residual = 0.00301612, Final residual = 4.31984e-08, No Iterations 1
smoothSolver:  Solving for Uy, Initial residual = 0.003016, Final residual = 4.31966e-08, No Iterations 1
smoothSolver:  Solving for Uz, Initial residual = 0.000777186, Final residual = 8.56191e-09, No Iterations 1
DICPCG:  Solving for p, Initial residual = 0.000258429, Final residual = 1.2697e-05, No Iterations 553
time step continuity errors : sum local = 1.07388e-11, global = 3.0796e-13, cumulative = 2.09797e-10
DICPCG:  Solving for p, Initial residual = 1.3751e-05, Final residual = 9.72767e-07, No Iterations 45
time step continuity errors : sum local = 8.20248e-13, global = 3.68772e-14, cumulative = 2.09834e-10
ExecutionTime = 90.04 s  ClockTime = 90 s

Time = 50

Courant Number mean: 0.000286797 max: 0.272346
smoothSolver:  Solving for Ux, Initial residual = 0.0029776, Final residual = 4.24577e-08, No Iterations 1
smoothSolver:  Solving for Uy, Initial residual = 0.00297748, Final residual = 4.24564e-08, No Iterations 1
smoothSolver:  Solving for Uz, Initial residual = 0.000770178, Final residual = 8.44823e-09, No Iterations 1
DICPCG:  Solving for p, Initial residual = 0.000257338, Final residual = 1.26158e-05, No Iterations 552
time step continuity errors : sum local = 1.06368e-11, global = 3.08043e-13, cumulative = 2.10142e-10
DICPCG:  Solving for p, Initial residual = 1.36059e-05, Final residual = 9.9808e-07, No Iterations 46
time step continuity errors : sum local = 8.38988e-13, global = 3.92692e-14, cumulative = 2.10181e-10
ExecutionTime = 93.41 s  ClockTime = 93 s

Time = 50.5

Courant Number mean: 0.000286771 max: 0.272346
smoothSolver:  Solving for Ux, Initial residual = 0.00293999, Final residual = 4.1729e-08, No Iterations 1
smoothSolver:  Solving for Uy, Initial residual = 0.00293988, Final residual = 4.17277e-08, No Iterations 1
smoothSolver:  Solving for Uz, Initial residual = 0.000763317, Final residual = 8.33747e-09, No Iterations 1
DICPCG:  Solving for p, Initial residual = 0.000255716, Final residual = 1.2206e-05, No Iterations 553
time step continuity errors : sum local = 1.02594e-11, global = 2.90917e-13, cumulative = 2.10472e-10
DICPCG:  Solving for p, Initial residual = 1.32382e-05, Final residual = 9.8621e-07, No Iterations 41
time step continuity errors : sum local = 8.26462e-13, global = 3.34071e-14, cumulative = 2.10505e-10
ExecutionTime = 96.03 s  ClockTime = 96 s

Time = 51

Courant Number mean: 0.000286745 max: 0.272346
smoothSolver:  Solving for Ux, Initial residual = 0.00290318, Final residual = 4.10189e-08, No Iterations 1
smoothSolver:  Solving for Uy, Initial residual = 0.00290307, Final residual = 4.10162e-08, No Iterations 1
smoothSolver:  Solving for Uz, Initial residual = 0.000756591, Final residual = 8.22935e-09, No Iterations 1
DICPCG:  Solving for p, Initial residual = 0.000254104, Final residual = 1.26823e-05, No Iterations 551
time step continuity errors : sum local = 1.0627e-11, global = 3.29968e-13, cumulative = 2.10835e-10
DICPCG:  Solving for p, Initial residual = 1.36351e-05, Final residual = 9.79073e-07, No Iterations 51
time step continuity errors : sum local = 8.17996e-13, global = 5.58687e-14, cumulative = 2.10891e-10
ExecutionTime = 99.14 s  ClockTime = 99 s

Time = 51.5

Courant Number mean: 0.000286719 max: 0.272346
smoothSolver:  Solving for Ux, Initial residual = 0.0028672, Final residual = 4.03291e-08, No Iterations 1
smoothSolver:  Solving for Uy, Initial residual = 0.00286709, Final residual = 4.03275e-08, No Iterations 1
smoothSolver:  Solving for Uz, Initial residual = 0.000750001, Final residual = 8.12376e-09, No Iterations 1
DICPCG:  Solving for p, Initial residual = 0.000253386, Final residual = 1.22917e-05, No Iterations 552
time step continuity errors : sum local = 1.02684e-11, global = 3.03049e-13, cumulative = 2.11194e-10
DICPCG:  Solving for p, Initial residual = 1.32598e-05, Final residual = 9.9479e-07, No Iterations 43
time step continuity errors : sum local = 8.28609e-13, global = 3.53307e-14, cumulative = 2.11229e-10
ExecutionTime = 101.88 s  ClockTime = 102 s

Time = 52

Courant Number mean: 0.000286693 max: 0.272346
smoothSolver:  Solving for Ux, Initial residual = 0.00283193, Final residual = 3.9649e-08, No Iterations 1
smoothSolver:  Solving for Uy, Initial residual = 0.00283182, Final residual = 3.96457e-08, No Iterations 1
smoothSolver:  Solving for Uz, Initial residual = 0.000743527, Final residual = 8.02074e-09, No Iterations 1
DICPCG:  Solving for p, Initial residual = 0.000252214, Final residual = 1.25765e-05, No Iterations 550
time step continuity errors : sum local = 1.04745e-11, global = 3.50085e-13, cumulative = 2.11579e-10
DICPCG:  Solving for p, Initial residual = 1.35685e-05, Final residual = 9.87821e-07, No Iterations 54
time step continuity errors : sum local = 8.20362e-13, global = 5.76062e-14, cumulative = 2.11637e-10
ExecutionTime = 104.97 s  ClockTime = 105 s

Time = 52.5

Courant Number mean: 0.000286667 max: 0.272346
smoothSolver:  Solving for Ux, Initial residual = 0.00279749, Final residual = 3.89859e-08, No Iterations 1
smoothSolver:  Solving for Uy, Initial residual = 0.00279737, Final residual = 3.89842e-08, No Iterations 1
smoothSolver:  Solving for Uz, Initial residual = 0.000737191, Final residual = 7.92009e-09, No Iterations 1
DICPCG:  Solving for p, Initial residual = 0.000250378, Final residual = 1.20913e-05, No Iterations 551
time step continuity errors : sum local = 1.00405e-11, global = 2.93432e-13, cumulative = 2.1193e-10
DICPCG:  Solving for p, Initial residual = 1.30446e-05, Final residual = 9.95755e-07, No Iterations 45
time step continuity errors : sum local = 8.24485e-13, global = 3.61988e-14, cumulative = 2.11967e-10
ExecutionTime = 107.66 s  ClockTime = 107 s

Time = 53

Courant Number mean: 0.000286641 max: 0.272346
smoothSolver:  Solving for Ux, Initial residual = 0.00276365, Final residual = 3.83499e-08, No Iterations 1
smoothSolver:  Solving for Uy, Initial residual = 0.00276354, Final residual = 3.83471e-08, No Iterations 1
smoothSolver:  Solving for Uz, Initial residual = 0.00073097, Final residual = 7.82164e-09, No Iterations 1
DICPCG:  Solving for p, Initial residual = 0.000248926, Final residual = 1.24314e-05, No Iterations 552
time step continuity errors : sum local = 1.02922e-11, global = 2.81058e-13, cumulative = 2.12248e-10
DICPCG:  Solving for p, Initial residual = 1.33664e-05, Final residual = 9.89706e-07, No Iterations 46
time step continuity errors : sum local = 8.17076e-13, global = 3.82383e-14, cumulative = 2.12286e-10
ExecutionTime = 110.99 s  ClockTime = 111 s

Time = 53.5

Courant Number mean: 0.000286614 max: 0.272346
smoothSolver:  Solving for Ux, Initial residual = 0.0027306, Final residual = 3.77173e-08, No Iterations 1
smoothSolver:  Solving for Uy, Initial residual = 0.00273049, Final residual = 3.77146e-08, No Iterations 1
smoothSolver:  Solving for Uz, Initial residual = 0.000724867, Final residual = 7.72548e-09, No Iterations 1
DICPCG:  Solving for p, Initial residual = 0.000247993, Final residual = 1.23575e-05, No Iterations 551
time step continuity errors : sum local = 1.02011e-11, global = 3.01622e-13, cumulative = 2.12588e-10
DICPCG:  Solving for p, Initial residual = 1.33192e-05, Final residual = 9.86585e-07, No Iterations 49
time step continuity errors : sum local = 8.12133e-13, global = 4.70893e-14, cumulative = 2.12635e-10
ExecutionTime = 113.86 s  ClockTime = 114 s

Time = 54

Courant Number mean: 0.000286588 max: 0.272346
smoothSolver:  Solving for Ux, Initial residual = 0.00269829, Final residual = 3.70998e-08, No Iterations 1
smoothSolver:  Solving for Uy, Initial residual = 0.00269817, Final residual = 3.70971e-08, No Iterations 1
smoothSolver:  Solving for Uz, Initial residual = 0.000718881, Final residual = 7.63144e-09, No Iterations 1
DICPCG:  Solving for p, Initial residual = 0.000251404, Final residual = 1.21608e-05, No Iterations 552
time step continuity errors : sum local = 1.00094e-11, global = 2.80936e-13, cumulative = 2.12916e-10
DICPCG:  Solving for p, Initial residual = 1.30902e-05, Final residual = 9.67567e-07, No Iterations 44
time step continuity errors : sum local = 7.94172e-13, global = 3.43265e-14, cumulative = 2.1295e-10
ExecutionTime = 117.04 s  ClockTime = 117 s

Time = 54.5

Courant Number mean: 0.000286562 max: 0.272346
smoothSolver:  Solving for Ux, Initial residual = 0.00266654, Final residual = 3.64999e-08, No Iterations 1
smoothSolver:  Solving for Uy, Initial residual = 0.00266643, Final residual = 3.64972e-08, No Iterations 1
smoothSolver:  Solving for Uz, Initial residual = 0.000712999, Final residual = 7.53958e-09, No Iterations 1
DICPCG:  Solving for p, Initial residual = 0.0002492, Final residual = 1.22433e-05, No Iterations 548
time step continuity errors : sum local = 1.00483e-11, global = 3.71796e-13, cumulative = 2.13322e-10
DICPCG:  Solving for p, Initial residual = 1.31941e-05, Final residual = 9.92469e-07, No Iterations 69
time step continuity errors : sum local = 8.123e-13, global = 4.74572e-14, cumulative = 2.13369e-10
ExecutionTime = 119.95 s  ClockTime = 120 s

Time = 55

Courant Number mean: 0.000286536 max: 0.272346
smoothSolver:  Solving for Ux, Initial residual = 0.00263556, Final residual = 3.59198e-08, No Iterations 1
smoothSolver:  Solving for Uy, Initial residual = 0.00263545, Final residual = 3.59169e-08, No Iterations 1
smoothSolver:  Solving for Uz, Initial residual = 0.000707233, Final residual = 7.44965e-09, No Iterations 1
DICPCG:  Solving for p, Initial residual = 0.00024561, Final residual = 1.20302e-05, No Iterations 548
time step continuity errors : sum local = 9.84527e-12, global = 3.39376e-13, cumulative = 2.13709e-10
DICPCG:  Solving for p, Initial residual = 1.29794e-05, Final residual = 9.98411e-07, No Iterations 54
time step continuity errors : sum local = 8.14827e-13, global = 5.6139e-14, cumulative = 2.13765e-10
ExecutionTime = 123.1 s  ClockTime = 123 s

Time = 55.5

Courant Number mean: 0.00028651 max: 0.272346
smoothSolver:  Solving for Ux, Initial residual = 0.00260508, Final residual = 3.535e-08, No Iterations 1
smoothSolver:  Solving for Uy, Initial residual = 0.00260497, Final residual = 3.53449e-08, No Iterations 1
smoothSolver:  Solving for Uz, Initial residual = 0.00070156, Final residual = 7.36184e-09, No Iterations 1
DICPCG:  Solving for p, Initial residual = 0.00024403, Final residual = 1.18219e-05, No Iterations 551
time step continuity errors : sum local = 9.64714e-12, global = 2.42023e-13, cumulative = 2.14007e-10
DICPCG:  Solving for p, Initial residual = 1.27635e-05, Final residual = 9.95081e-07, No Iterations 46
time step continuity errors : sum local = 8.0982e-13, global = 3.14386e-14, cumulative = 2.14038e-10
ExecutionTime = 125.72 s  ClockTime = 125 s

Time = 56

Courant Number mean: 0.000286484 max: 0.272346
smoothSolver:  Solving for Ux, Initial residual = 0.00257527, Final residual = 3.47886e-08, No Iterations 1
smoothSolver:  Solving for Uy, Initial residual = 0.00257516, Final residual = 3.47852e-08, No Iterations 1
smoothSolver:  Solving for Uz, Initial residual = 0.000695989, Final residual = 7.27578e-09, No Iterations 1
DICPCG:  Solving for p, Initial residual = 0.000242451, Final residual = 1.19557e-05, No Iterations 14
time step continuity errors : sum local = 9.72882e-12, global = 5.66402e-13, cumulative = 2.14605e-10
DICPCG:  Solving for p, Initial residual = 1.2964e-05, Final residual = 8.70718e-07, No Iterations 563
time step continuity errors : sum local = 7.08466e-13, global = 8.05045e-15, cumulative = 2.14613e-10
ExecutionTime = 128.74 s  ClockTime = 128 s

Time = 56.5

Courant Number mean: 0.000286457 max: 0.272346
smoothSolver:  Solving for Ux, Initial residual = 0.00254603, Final residual = 3.42401e-08, No Iterations 1
smoothSolver:  Solving for Uy, Initial residual = 0.00254592, Final residual = 3.42353e-08, No Iterations 1
smoothSolver:  Solving for Uz, Initial residual = 0.000690511, Final residual = 7.19175e-09, No Iterations 1
DICPCG:  Solving for p, Initial residual = 0.000240366, Final residual = 1.20074e-05, No Iterations 549
time step continuity errors : sum local = 9.74354e-12, global = 3.31635e-13, cumulative = 2.14944e-10
DICPCG:  Solving for p, Initial residual = 1.29381e-05, Final residual = 9.79975e-07, No Iterations 51
time step continuity errors : sum local = 7.93132e-13, global = 5.60585e-14, cumulative = 2.15e-10
ExecutionTime = 131.33 s  ClockTime = 131 s

Time = 57

Courant Number mean: 0.000286431 max: 0.272346
smoothSolver:  Solving for Ux, Initial residual = 0.00251752, Final residual = 3.37037e-08, No Iterations 1
smoothSolver:  Solving for Uy, Initial residual = 0.00251741, Final residual = 3.37003e-08, No Iterations 1
smoothSolver:  Solving for Uz, Initial residual = 0.000685141, Final residual = 7.10928e-09, No Iterations 1
DICPCG:  Solving for p, Initial residual = 0.000239195, Final residual = 1.19307e-05, No Iterations 14
time step continuity errors : sum local = 9.655e-12, global = 6.11278e-13, cumulative = 2.15612e-10
DICPCG:  Solving for p, Initial residual = 1.29122e-05, Final residual = 9.4303e-07, No Iterations 563
time step continuity errors : sum local = 7.63075e-13, global = 1.00025e-14, cumulative = 2.15622e-10
ExecutionTime = 134.31 s  ClockTime = 134 s

Time = 57.5

Courant Number mean: 0.000286405 max: 0.272346
smoothSolver:  Solving for Ux, Initial residual = 0.0024893, Final residual = 3.31791e-08, No Iterations 1
smoothSolver:  Solving for Uy, Initial residual = 0.0024892, Final residual = 3.31746e-08, No Iterations 1
smoothSolver:  Solving for Uz, Initial residual = 0.000679843, Final residual = 7.02883e-09, No Iterations 1
DICPCG:  Solving for p, Initial residual = 0.00023762, Final residual = 1.18043e-05, No Iterations 14
time step continuity errors : sum local = 9.52602e-12, global = 4.63385e-13, cumulative = 2.16085e-10
DICPCG:  Solving for p, Initial residual = 1.27703e-05, Final residual = 8.86957e-07, No Iterations 562
time step continuity errors : sum local = 7.15693e-13, global = 7.15327e-15, cumulative = 2.16092e-10
ExecutionTime = 136.81 s  ClockTime = 136 s

Time = 58

Courant Number mean: 0.000286379 max: 0.272346
smoothSolver:  Solving for Ux, Initial residual = 0.00246194, Final residual = 3.26726e-08, No Iterations 1
smoothSolver:  Solving for Uy, Initial residual = 0.00246183, Final residual = 3.26692e-08, No Iterations 1
smoothSolver:  Solving for Uz, Initial residual = 0.000674646, Final residual = 6.94964e-09, No Iterations 1
DICPCG:  Solving for p, Initial residual = 0.000236338, Final residual = 1.1485e-05, No Iterations 14
time step continuity errors : sum local = 9.24338e-12, global = 5.04049e-13, cumulative = 2.16596e-10
DICPCG:  Solving for p, Initial residual = 1.24585e-05, Final residual = 9.79366e-07, No Iterations 562
time step continuity errors : sum local = 7.8813e-13, global = 1.03964e-14, cumulative = 2.16607e-10
ExecutionTime = 139.88 s  ClockTime = 140 s

Time = 58.5

Courant Number mean: 0.000286353 max: 0.272346
smoothSolver:  Solving for Ux, Initial residual = 0.00243504, Final residual = 3.21585e-08, No Iterations 1
smoothSolver:  Solving for Uy, Initial residual = 0.00243494, Final residual = 3.21547e-08, No Iterations 1
smoothSolver:  Solving for Uz, Initial residual = 0.000669535, Final residual = 6.87232e-09, No Iterations 1
DICPCG:  Solving for p, Initial residual = 0.000235015, Final residual = 1.13973e-05, No Iterations 14
time step continuity errors : sum local = 9.14802e-12, global = 5.0054e-13, cumulative = 2.17107e-10
DICPCG:  Solving for p, Initial residual = 1.23823e-05, Final residual = 9.31807e-07, No Iterations 562
time step continuity errors : sum local = 7.47834e-13, global = 9.08798e-15, cumulative = 2.17116e-10
ExecutionTime = 142.38 s  ClockTime = 142 s

Time = 59

Courant Number mean: 0.000286326 max: 0.272346
smoothSolver:  Solving for Ux, Initial residual = 0.00240865, Final residual = 3.16717e-08, No Iterations 1
smoothSolver:  Solving for Uy, Initial residual = 0.00240854, Final residual = 3.16697e-08, No Iterations 1
smoothSolver:  Solving for Uz, Initial residual = 0.000664506, Final residual = 6.79629e-09, No Iterations 1
DICPCG:  Solving for p, Initial residual = 0.000233787, Final residual = 1.13394e-05, No Iterations 14
time step continuity errors : sum local = 9.07715e-12, global = 4.93317e-13, cumulative = 2.1761e-10
DICPCG:  Solving for p, Initial residual = 1.23023e-05, Final residual = 9.83692e-07, No Iterations 562
time step continuity errors : sum local = 7.87363e-13, global = 1.19754e-14, cumulative = 2.17622e-10
ExecutionTime = 145.39 s  ClockTime = 145 s

Time = 59.5

Courant Number mean: 0.0002863 max: 0.272346
smoothSolver:  Solving for Ux, Initial residual = 0.00238276, Final residual = 3.11832e-08, No Iterations 1
smoothSolver:  Solving for Uy, Initial residual = 0.00238266, Final residual = 3.11802e-08, No Iterations 1
smoothSolver:  Solving for Uz, Initial residual = 0.000659557, Final residual = 6.72209e-09, No Iterations 1
DICPCG:  Solving for p, Initial residual = 0.000231851, Final residual = 1.13913e-05, No Iterations 14
time step continuity errors : sum local = 9.0945e-12, global = 4.88161e-13, cumulative = 2.1811e-10
DICPCG:  Solving for p, Initial residual = 1.234e-05, Final residual = 9.57987e-07, No Iterations 562
time step continuity errors : sum local = 7.64753e-13, global = 1.07601e-14, cumulative = 2.1812e-10
ExecutionTime = 147.86 s  ClockTime = 148 s

Time = 60

Courant Number mean: 0.000286274 max: 0.272346
smoothSolver:  Solving for Ux, Initial residual = 0.00235737, Final residual = 3.07222e-08, No Iterations 1
smoothSolver:  Solving for Uy, Initial residual = 0.00235727, Final residual = 3.07205e-08, No Iterations 1
smoothSolver:  Solving for Uz, Initial residual = 0.000654688, Final residual = 6.64919e-09, No Iterations 1
DICPCG:  Solving for p, Initial residual = 0.000230734, Final residual = 1.12781e-05, No Iterations 14
time step continuity errors : sum local = 8.98049e-12, global = 4.76095e-13, cumulative = 2.18597e-10
DICPCG:  Solving for p, Initial residual = 1.22153e-05, Final residual = 9.6295e-07, No Iterations 562
time step continuity errors : sum local = 7.66691e-13, global = 1.12137e-14, cumulative = 2.18608e-10
ExecutionTime = 150.94 s  ClockTime = 151 s

Time = 60.5

Courant Number mean: 0.000286248 max: 0.272346
smoothSolver:  Solving for Ux, Initial residual = 0.00233259, Final residual = 3.0252e-08, No Iterations 1
smoothSolver:  Solving for Uy, Initial residual = 0.00233249, Final residual = 3.02491e-08, No Iterations 1
smoothSolver:  Solving for Uz, Initial residual = 0.000649896, Final residual = 6.57803e-09, No Iterations 1
DICPCG:  Solving for p, Initial residual = 0.000229476, Final residual = 1.11625e-05, No Iterations 14
time step continuity errors : sum local = 8.8652e-12, global = 4.75989e-13, cumulative = 2.19084e-10
DICPCG:  Solving for p, Initial residual = 1.21014e-05, Final residual = 9.47394e-07, No Iterations 562
time step continuity errors : sum local = 7.52336e-13, global = 1.07496e-14, cumulative = 2.19094e-10
ExecutionTime = 153.59 s  ClockTime = 153 s

Time = 61

Courant Number mean: 0.000286222 max: 0.272346
smoothSolver:  Solving for Ux, Initial residual = 0.00230838, Final residual = 2.9805e-08, No Iterations 1
smoothSolver:  Solving for Uy, Initial residual = 0.00230828, Final residual = 2.98038e-08, No Iterations 1
smoothSolver:  Solving for Uz, Initial residual = 0.000645186, Final residual = 6.50796e-09, No Iterations 1
DICPCG:  Solving for p, Initial residual = 0.000228113, Final residual = 1.09752e-05, No Iterations 14
time step continuity errors : sum local = 8.69389e-12, global = 4.67692e-13, cumulative = 2.19562e-10
DICPCG:  Solving for p, Initial residual = 1.19065e-05, Final residual = 9.54756e-07, No Iterations 562
time step continuity errors : sum local = 7.56219e-13, global = 1.12119e-14, cumulative = 2.19573e-10
ExecutionTime = 156.96 s  ClockTime = 157 s

Time = 61.5

Courant Number mean: 0.000286195 max: 0.272346
smoothSolver:  Solving for Ux, Initial residual = 0.0022846, Final residual = 2.93521e-08, No Iterations 1
smoothSolver:  Solving for Uy, Initial residual = 0.0022845, Final residual = 2.935e-08, No Iterations 1
smoothSolver:  Solving for Uz, Initial residual = 0.000640561, Final residual = 6.4395e-09, No Iterations 1
DICPCG:  Solving for p, Initial residual = 0.000226976, Final residual = 1.0935e-05, No Iterations 14
time step continuity errors : sum local = 8.63977e-12, global = 4.65134e-13, cumulative = 2.20039e-10
DICPCG:  Solving for p, Initial residual = 1.18728e-05, Final residual = 9.52694e-07, No Iterations 562
time step continuity errors : sum local = 7.52646e-13, global = 1.18264e-14, cumulative = 2.2005e-10
ExecutionTime = 159.52 s  ClockTime = 159 s

Time = 62

Courant Number mean: 0.000286169 max: 0.272346
smoothSolver:  Solving for Ux, Initial residual = 0.00226129, Final residual = 2.89183e-08, No Iterations 1
smoothSolver:  Solving for Uy, Initial residual = 0.0022612, Final residual = 2.89165e-08, No Iterations 1
smoothSolver:  Solving for Uz, Initial residual = 0.000636007, Final residual = 6.37208e-09, No Iterations 1
DICPCG:  Solving for p, Initial residual = 0.000225782, Final residual = 1.09127e-05, No Iterations 14
time step continuity errors : sum local = 8.60016e-12, global = 4.56123e-13, cumulative = 2.20506e-10
DICPCG:  Solving for p, Initial residual = 1.18389e-05, Final residual = 9.48899e-07, No Iterations 562
time step continuity errors : sum local = 7.47736e-13, global = 1.0927e-14, cumulative = 2.20517e-10
ExecutionTime = 162.55 s  ClockTime = 162 s

Time = 62.5

Courant Number mean: 0.000286143 max: 0.272346
smoothSolver:  Solving for Ux, Initial residual = 0.00223844, Final residual = 2.8486e-08, No Iterations 1
smoothSolver:  Solving for Uy, Initial residual = 0.00223834, Final residual = 2.84832e-08, No Iterations 1
smoothSolver:  Solving for Uz, Initial residual = 0.00063152, Final residual = 6.3062e-09, No Iterations 1
DICPCG:  Solving for p, Initial residual = 0.000224876, Final residual = 1.06247e-05, No Iterations 14
time step continuity errors : sum local = 8.35199e-12, global = 4.57086e-13, cumulative = 2.20974e-10
DICPCG:  Solving for p, Initial residual = 1.15553e-05, Final residual = 9.44441e-07, No Iterations 562
time step continuity errors : sum local = 7.42339e-13, global = 1.24476e-14, cumulative = 2.20987e-10
ExecutionTime = 165.05 s  ClockTime = 165 s

Time = 63

Courant Number mean: 0.000286117 max: 0.272346
smoothSolver:  Solving for Ux, Initial residual = 0.00221606, Final residual = 2.80868e-08, No Iterations 1
smoothSolver:  Solving for Uy, Initial residual = 0.00221595, Final residual = 2.80851e-08, No Iterations 1
smoothSolver:  Solving for Uz, Initial residual = 0.0006271, Final residual = 6.24132e-09, No Iterations 1
DICPCG:  Solving for p, Initial residual = 0.000225327, Final residual = 1.06603e-05, No Iterations 14
time step continuity errors : sum local = 8.35886e-12, global = 4.49198e-13, cumulative = 2.21436e-10
DICPCG:  Solving for p, Initial residual = 1.15866e-05, Final residual = 9.2512e-07, No Iterations 562
time step continuity errors : sum local = 7.25319e-13, global = 1.08386e-14, cumulative = 2.21447e-10
ExecutionTime = 168.01 s  ClockTime = 168 s

Time = 63.5

Courant Number mean: 0.000286091 max: 0.272346
smoothSolver:  Solving for Ux, Initial residual = 0.00219421, Final residual = 2.76708e-08, No Iterations 1
smoothSolver:  Solving for Uy, Initial residual = 0.0021941, Final residual = 2.76688e-08, No Iterations 1
smoothSolver:  Solving for Uz, Initial residual = 0.000622746, Final residual = 6.17786e-09, No Iterations 1
DICPCG:  Solving for p, Initial residual = 0.000226405, Final residual = 1.04922e-05, No Iterations 14
time step continuity errors : sum local = 8.20642e-12, global = 4.41599e-13, cumulative = 2.21889e-10
DICPCG:  Solving for p, Initial residual = 1.14169e-05, Final residual = 9.36182e-07, No Iterations 562
time step continuity errors : sum local = 7.3215e-13, global = 1.17124e-14, cumulative = 2.219e-10
ExecutionTime = 170.65 s  ClockTime = 170 s

Time = 64

Courant Number mean: 0.000286064 max: 0.272346
smoothSolver:  Solving for Ux, Initial residual = 0.00217275, Final residual = 2.7282e-08, No Iterations 1
smoothSolver:  Solving for Uy, Initial residual = 0.00217265, Final residual = 2.72809e-08, No Iterations 1
smoothSolver:  Solving for Uz, Initial residual = 0.000618454, Final residual = 6.11539e-09, No Iterations 1
DICPCG:  Solving for p, Initial residual = 0.000221634, Final residual = 1.0407e-05, No Iterations 14
time step continuity errors : sum local = 8.11962e-12, global = 4.41972e-13, cumulative = 2.22342e-10
DICPCG:  Solving for p, Initial residual = 1.13205e-05, Final residual = 9.34519e-07, No Iterations 562
time step continuity errors : sum local = 7.29034e-13, global = 1.19769e-14, cumulative = 2.22354e-10
ExecutionTime = 173.9 s  ClockTime = 174 s

Time = 64.5

Courant Number mean: 0.000286038 max: 0.272346
smoothSolver:  Solving for Ux, Initial residual = 0.00215165, Final residual = 2.68821e-08, No Iterations 1
smoothSolver:  Solving for Uy, Initial residual = 0.00215156, Final residual = 2.68799e-08, No Iterations 1
smoothSolver:  Solving for Uz, Initial residual = 0.000614224, Final residual = 6.05425e-09, No Iterations 1
DICPCG:  Solving for p, Initial residual = 0.000219398, Final residual = 1.02984e-05, No Iterations 14
time step continuity errors : sum local = 8.01504e-12, global = 4.31809e-13, cumulative = 2.22786e-10
DICPCG:  Solving for p, Initial residual = 1.1206e-05, Final residual = 9.23225e-07, No Iterations 562
time step continuity errors : sum local = 7.18449e-13, global = 1.16657e-14, cumulative = 2.22798e-10
ExecutionTime = 176.62 s  ClockTime = 176 s

Time = 65

Courant Number mean: 0.000286012 max: 0.272346
smoothSolver:  Solving for Ux, Initial residual = 0.00213094, Final residual = 2.6507e-08, No Iterations 1
smoothSolver:  Solving for Uy, Initial residual = 0.00213086, Final residual = 2.65057e-08, No Iterations 1
smoothSolver:  Solving for Uz, Initial residual = 0.000610054, Final residual = 5.99404e-09, No Iterations 1
DICPCG:  Solving for p, Initial residual = 0.000217636, Final residual = 1.03935e-05, No Iterations 14
time step continuity errors : sum local = 8.06926e-12, global = 4.32208e-13, cumulative = 2.2323e-10
DICPCG:  Solving for p, Initial residual = 1.12846e-05, Final residual = 9.16612e-07, No Iterations 562
time step continuity errors : sum local = 7.11561e-13, global = 1.12185e-14, cumulative = 2.23241e-10
ExecutionTime = 179.89 s  ClockTime = 180 s

Time = 65.5

Courant Number mean: 0.000285986 max: 0.272346
smoothSolver:  Solving for Ux, Initial residual = 0.00211062, Final residual = 2.61118e-08, No Iterations 1
smoothSolver:  Solving for Uy, Initial residual = 0.00211054, Final residual = 2.61095e-08, No Iterations 1
smoothSolver:  Solving for Uz, Initial residual = 0.000605944, Final residual = 5.93505e-09, No Iterations 1
DICPCG:  Solving for p, Initial residual = 0.00021653, Final residual = 1.01512e-05, No Iterations 14
time step continuity errors : sum local = 7.86207e-12, global = 4.26105e-13, cumulative = 2.23667e-10
DICPCG:  Solving for p, Initial residual = 1.10516e-05, Final residual = 9.13936e-07, No Iterations 562
time step continuity errors : sum local = 7.07764e-13, global = 1.20271e-14, cumulative = 2.23679e-10
ExecutionTime = 182.55 s  ClockTime = 182 s

Time = 66

Courant Number mean: 0.000285959 max: 0.272346
smoothSolver:  Solving for Ux, Initial residual = 0.00209065, Final residual = 2.5749e-08, No Iterations 1
smoothSolver:  Solving for Uy, Initial residual = 0.00209057, Final residual = 2.57474e-08, No Iterations 1
smoothSolver:  Solving for Uz, Initial residual = 0.000601894, Final residual = 5.87694e-09, No Iterations 1
DICPCG:  Solving for p, Initial residual = 0.000215279, Final residual = 9.96311e-06, No Iterations 14
time step continuity errors : sum local = 7.69783e-12, global = 4.20816e-13, cumulative = 2.241e-10
DICPCG:  Solving for p, Initial residual = 1.08548e-05, Final residual = 9.01828e-07, No Iterations 562
time step continuity errors : sum local = 6.96708e-13, global = 1.12842e-14, cumulative = 2.24111e-10
ExecutionTime = 185.79 s  ClockTime = 185 s

Time = 66.5

Courant Number mean: 0.000285933 max: 0.272346
smoothSolver:  Solving for Ux, Initial residual = 0.00207103, Final residual = 2.53734e-08, No Iterations 1
smoothSolver:  Solving for Uy, Initial residual = 0.00207095, Final residual = 2.53707e-08, No Iterations 1
smoothSolver:  Solving for Uz, Initial residual = 0.000597907, Final residual = 5.82013e-09, No Iterations 1
DICPCG:  Solving for p, Initial residual = 0.000213767, Final residual = 9.97417e-06, No Iterations 14
time step continuity errors : sum local = 7.68798e-12, global = 4.17174e-13, cumulative = 2.24529e-10
DICPCG:  Solving for p, Initial residual = 1.0864e-05, Final residual = 8.96489e-07, No Iterations 562
time step continuity errors : sum local = 6.9093e-13, global = 1.18657e-14, cumulative = 2.2454e-10
ExecutionTime = 188.41 s  ClockTime = 188 s

Time = 67

Courant Number mean: 0.000285907 max: 0.272346
smoothSolver:  Solving for Ux, Initial residual = 0.00205175, Final residual = 2.50187e-08, No Iterations 1
smoothSolver:  Solving for Uy, Initial residual = 0.00205166, Final residual = 2.50169e-08, No Iterations 1
smoothSolver:  Solving for Uz, Initial residual = 0.000593978, Final residual = 5.76407e-09, No Iterations 1
DICPCG:  Solving for p, Initial residual = 0.00021254, Final residual = 9.91456e-06, No Iterations 14
time step continuity errors : sum local = 7.62394e-12, global = 4.14069e-13, cumulative = 2.24954e-10
DICPCG:  Solving for p, Initial residual = 1.07907e-05, Final residual = 8.86422e-07, No Iterations 562
time step continuity errors : sum local = 6.81554e-13, global = 1.13255e-14, cumulative = 2.24966e-10
ExecutionTime = 191.61 s  ClockTime = 191 s

Time = 67.5

Courant Number mean: 0.000285881 max: 0.272346
smoothSolver:  Solving for Ux, Initial residual = 0.00203295, Final residual = 2.46598e-08, No Iterations 1
smoothSolver:  Solving for Uy, Initial residual = 0.00203287, Final residual = 2.46573e-08, No Iterations 1
smoothSolver:  Solving for Uz, Initial residual = 0.000590105, Final residual = 5.7092e-09, No Iterations 1
DICPCG:  Solving for p, Initial residual = 0.000211529, Final residual = 9.81493e-06, No Iterations 14
time step continuity errors : sum local = 7.52958e-12, global = 4.03987e-13, cumulative = 2.2537e-10
DICPCG:  Solving for p, Initial residual = 1.06939e-05, Final residual = 8.85841e-07, No Iterations 562
time step continuity errors : sum local = 6.79506e-13, global = 1.1786e-14, cumulative = 2.25382e-10
ExecutionTime = 194.29 s  ClockTime = 194 s

Time = 68

Courant Number mean: 0.000285855 max: 0.272346
smoothSolver:  Solving for Ux, Initial residual = 0.00201451, Final residual = 2.43224e-08, No Iterations 1
smoothSolver:  Solving for Uy, Initial residual = 0.00201443, Final residual = 2.43209e-08, No Iterations 1
smoothSolver:  Solving for Uz, Initial residual = 0.00058629, Final residual = 5.65506e-09, No Iterations 1
DICPCG:  Solving for p, Initial residual = 0.000210252, Final residual = 9.73196e-06, No Iterations 14
time step continuity errors : sum local = 7.4485e-12, global = 4.02196e-13, cumulative = 2.25784e-10
DICPCG:  Solving for p, Initial residual = 1.05949e-05, Final residual = 8.81152e-07, No Iterations 562
time step continuity errors : sum local = 6.74332e-13, global = 1.16036e-14, cumulative = 2.25795e-10
ExecutionTime = 197.55 s  ClockTime = 197 s

Time = 68.5

Courant Number mean: 0.000285828 max: 0.272346
smoothSolver:  Solving for Ux, Initial residual = 0.00199647, Final residual = 2.39775e-08, No Iterations 1
smoothSolver:  Solving for Uy, Initial residual = 0.00199639, Final residual = 2.39747e-08, No Iterations 1
smoothSolver:  Solving for Uz, Initial residual = 0.000582531, Final residual = 5.60213e-09, No Iterations 1
DICPCG:  Solving for p, Initial residual = 0.00020927, Final residual = 9.56282e-06, No Iterations 14
time step continuity errors : sum local = 7.30209e-12, global = 3.95601e-13, cumulative = 2.26191e-10
DICPCG:  Solving for p, Initial residual = 1.04347e-05, Final residual = 8.68031e-07, No Iterations 562
time step continuity errors : sum local = 6.6275e-13, global = 1.14422e-14, cumulative = 2.26202e-10
ExecutionTime = 200.2 s  ClockTime = 200 s

Time = 69

Courant Number mean: 0.000285802 max: 0.272346
smoothSolver:  Solving for Ux, Initial residual = 0.0019788, Final residual = 2.3654e-08, No Iterations 1
smoothSolver:  Solving for Uy, Initial residual = 0.00197872, Final residual = 2.36527e-08, No Iterations 1
smoothSolver:  Solving for Uz, Initial residual = 0.000578823, Final residual = 5.54986e-09, No Iterations 1
DICPCG:  Solving for p, Initial residual = 0.000208341, Final residual = 9.51866e-06, No Iterations 14
time step continuity errors : sum local = 7.25164e-12, global = 3.94994e-13, cumulative = 2.26597e-10
DICPCG:  Solving for p, Initial residual = 1.03767e-05, Final residual = 8.72919e-07, No Iterations 562
time step continuity errors : sum local = 6.64949e-13, global = 1.15627e-14, cumulative = 2.26609e-10
ExecutionTime = 203.41 s  ClockTime = 203 s

Time = 69.5

Courant Number mean: 0.000285776 max: 0.272346
smoothSolver:  Solving for Ux, Initial residual = 0.00196146, Final residual = 2.33208e-08, No Iterations 1
smoothSolver:  Solving for Uy, Initial residual = 0.00196138, Final residual = 2.3319e-08, No Iterations 1
smoothSolver:  Solving for Uz, Initial residual = 0.000575172, Final residual = 5.49866e-09, No Iterations 1
DICPCG:  Solving for p, Initial residual = 0.000207214, Final residual = 9.38613e-06, No Iterations 14
time step continuity errors : sum local = 7.13436e-12, global = 3.8808e-13, cumulative = 2.26997e-10
DICPCG:  Solving for p, Initial residual = 1.02406e-05, Final residual = 8.58746e-07, No Iterations 562
time step continuity errors : sum local = 6.5266e-13, global = 1.10724e-14, cumulative = 2.27008e-10
ExecutionTime = 206.08 s  ClockTime = 206 s

Time = 70

Courant Number mean: 0.00028575 max: 0.272346
smoothSolver:  Solving for Ux, Initial residual = 0.00194444, Final residual = 2.30069e-08, No Iterations 1
smoothSolver:  Solving for Uy, Initial residual = 0.00194437, Final residual = 2.30057e-08, No Iterations 1
smoothSolver:  Solving for Uz, Initial residual = 0.000571573, Final residual = 5.4481e-09, No Iterations 1
DICPCG:  Solving for p, Initial residual = 0.000206316, Final residual = 9.37051e-06, No Iterations 14
time step continuity errors : sum local = 7.10635e-12, global = 3.89553e-13, cumulative = 2.27398e-10
DICPCG:  Solving for p, Initial residual = 1.02062e-05, Final residual = 9.98588e-07, No Iterations 561
time step continuity errors : sum local = 7.57225e-13, global = 1.22547e-14, cumulative = 2.2741e-10
ExecutionTime = 209.41 s  ClockTime = 209 s

Time = 70.5

Courant Number mean: 0.000285724 max: 0.272346
smoothSolver:  Solving for Ux, Initial residual = 0.00192779, Final residual = 2.26861e-08, No Iterations 1
smoothSolver:  Solving for Uy, Initial residual = 0.00192771, Final residual = 2.26841e-08, No Iterations 1
smoothSolver:  Solving for Uz, Initial residual = 0.000568024, Final residual = 5.39864e-09, No Iterations 1
DICPCG:  Solving for p, Initial residual = 0.000205333, Final residual = 9.22607e-06, No Iterations 14
time step continuity errors : sum local = 6.98108e-12, global = 3.79635e-13, cumulative = 2.2779e-10
DICPCG:  Solving for p, Initial residual = 1.00711e-05, Final residual = 9.66867e-07, No Iterations 561
time step continuity errors : sum local = 7.31522e-13, global = 1.03913e-14, cumulative = 2.278e-10
ExecutionTime = 212.12 s  ClockTime = 212 s

Time = 71

Courant Number mean: 0.000285697 max: 0.272346
smoothSolver:  Solving for Ux, Initial residual = 0.00191141, Final residual = 2.23882e-08, No Iterations 1
smoothSolver:  Solving for Uy, Initial residual = 0.00191134, Final residual = 2.23868e-08, No Iterations 1
smoothSolver:  Solving for Uz, Initial residual = 0.000564526, Final residual = 5.34969e-09, No Iterations 1
DICPCG:  Solving for p, Initial residual = 0.000204361, Final residual = 9.1846e-06, No Iterations 14
time step continuity errors : sum local = 6.93418e-12, global = 3.80264e-13, cumulative = 2.2818e-10
DICPCG:  Solving for p, Initial residual = 1.00151e-05, Final residual = 9.81901e-07, No Iterations 561
time step continuity errors : sum local = 7.41237e-13, global = 1.16029e-14, cumulative = 2.28192e-10
ExecutionTime = 215.41 s  ClockTime = 215 s

Time = 71.5

Courant Number mean: 0.000285671 max: 0.272346
smoothSolver:  Solving for Ux, Initial residual = 0.00189533, Final residual = 2.20819e-08, No Iterations 1
smoothSolver:  Solving for Uy, Initial residual = 0.00189525, Final residual = 2.20797e-08, No Iterations 1
smoothSolver:  Solving for Uz, Initial residual = 0.000561076, Final residual = 5.30188e-09, No Iterations 1
DICPCG:  Solving for p, Initial residual = 0.000204124, Final residual = 9.29312e-06, No Iterations 14
time step continuity errors : sum local = 7.00054e-12, global = 3.77331e-13, cumulative = 2.28569e-10
DICPCG:  Solving for p, Initial residual = 1.01162e-05, Final residual = 9.70374e-07, No Iterations 561
time step continuity errors : sum local = 7.30909e-13, global = 1.11639e-14, cumulative = 2.2858e-10
ExecutionTime = 217.97 s  ClockTime = 218 s

Time = 72

Courant Number mean: 0.000285645 max: 0.272346
smoothSolver:  Solving for Ux, Initial residual = 0.00187952, Final residual = 2.17934e-08, No Iterations 1
smoothSolver:  Solving for Uy, Initial residual = 0.00187941, Final residual = 2.17913e-08, No Iterations 1
smoothSolver:  Solving for Uz, Initial residual = 0.000557672, Final residual = 5.25453e-09, No Iterations 1
DICPCG:  Solving for p, Initial residual = 0.000204027, Final residual = 9.1886e-06, No Iterations 14
time step continuity errors : sum local = 6.90653e-12, global = 3.72041e-13, cumulative = 2.28952e-10
DICPCG:  Solving for p, Initial residual = 1.00008e-05, Final residual = 9.76765e-07, No Iterations 561
time step continuity errors : sum local = 7.34099e-13, global = 1.0943e-14, cumulative = 2.28963e-10
ExecutionTime = 220.95 s  ClockTime = 221 s

Time = 72.5

Courant Number mean: 0.000285619 max: 0.272346
smoothSolver:  Solving for Ux, Initial residual = 0.00186395, Final residual = 2.14954e-08, No Iterations 1
smoothSolver:  Solving for Uy, Initial residual = 0.00186382, Final residual = 2.14921e-08, No Iterations 1
smoothSolver:  Solving for Uz, Initial residual = 0.000554317, Final residual = 5.20827e-09, No Iterations 1
DICPCG:  Solving for p, Initial residual = 0.000217956, Final residual = 1.05146e-05, No Iterations 6
time step continuity errors : sum local = 7.88575e-12, global = 7.0414e-13, cumulative = 2.29667e-10
DICPCG:  Solving for p, Initial residual = 1.13026e-05, Final residual = 8.95436e-07, No Iterations 569
time step continuity errors : sum local = 6.71482e-13, global = 1.92706e-14, cumulative = 2.29687e-10
ExecutionTime = 223.51 s  ClockTime = 223 s

Time = 73

Courant Number mean: 0.000285593 max: 0.272346
smoothSolver:  Solving for Ux, Initial residual = 0.00184848, Final residual = 2.12007e-08, No Iterations 1
smoothSolver:  Solving for Uy, Initial residual = 0.00184839, Final residual = 2.11981e-08, No Iterations 1
smoothSolver:  Solving for Uz, Initial residual = 0.000551008, Final residual = 5.16249e-09, No Iterations 1
DICPCG:  Solving for p, Initial residual = 0.000203886, Final residual = 9.09386e-06, No Iterations 14
time step continuity errors : sum local = 6.80524e-12, global = 3.60813e-13, cumulative = 2.30048e-10
DICPCG:  Solving for p, Initial residual = 9.90567e-06, Final residual = 9.41197e-07, No Iterations 561
time step continuity errors : sum local = 7.04253e-13, global = 1.31307e-14, cumulative = 2.30061e-10
ExecutionTime = 226.62 s  ClockTime = 226 s

Time = 73.5

Courant Number mean: 0.000285566 max: 0.272346
smoothSolver:  Solving for Ux, Initial residual = 0.00183337, Final residual = 2.09342e-08, No Iterations 1
smoothSolver:  Solving for Uy, Initial residual = 0.00183331, Final residual = 2.09316e-08, No Iterations 1
smoothSolver:  Solving for Uz, Initial residual = 0.000547741, Final residual = 5.11757e-09, No Iterations 1
DICPCG:  Solving for p, Initial residual = 0.00019903, Final residual = 8.85968e-06, No Iterations 14
time step continuity errors : sum local = 6.61563e-12, global = 3.55807e-13, cumulative = 2.30416e-10
DICPCG:  Solving for p, Initial residual = 9.67477e-06, Final residual = 9.47951e-07, No Iterations 561
time step continuity errors : sum local = 7.07771e-13, global = 1.01878e-14, cumulative = 2.30427e-10
ExecutionTime = 229.2 s  ClockTime = 229 s

Time = 74

Courant Number mean: 0.00028554 max: 0.272346
smoothSolver:  Solving for Ux, Initial residual = 0.00181852, Final residual = 2.06677e-08, No Iterations 1
smoothSolver:  Solving for Uy, Initial residual = 0.00181846, Final residual = 2.0666e-08, No Iterations 1
smoothSolver:  Solving for Uz, Initial residual = 0.000544516, Final residual = 5.0731e-09, No Iterations 1
DICPCG:  Solving for p, Initial residual = 0.000198017, Final residual = 8.71154e-06, No Iterations 14
time step continuity errors : sum local = 6.49102e-12, global = 3.5291e-13, cumulative = 2.3078e-10
DICPCG:  Solving for p, Initial residual = 9.51587e-06, Final residual = 9.35715e-07, No Iterations 561
time step continuity errors : sum local = 6.97133e-13, global = 1.01633e-14, cumulative = 2.3079e-10
ExecutionTime = 232.18 s  ClockTime = 232 s

Time = 74.5

Courant Number mean: 0.000285514 max: 0.272346
smoothSolver:  Solving for Ux, Initial residual = 0.001804, Final residual = 2.03884e-08, No Iterations 1
smoothSolver:  Solving for Uy, Initial residual = 0.00180394, Final residual = 2.03859e-08, No Iterations 1
smoothSolver:  Solving for Uz, Initial residual = 0.000541331, Final residual = 5.02972e-09, No Iterations 1
DICPCG:  Solving for p, Initial residual = 0.000196406, Final residual = 8.62474e-06, No Iterations 14
time step continuity errors : sum local = 6.41264e-12, global = 3.53154e-13, cumulative = 2.31143e-10
DICPCG:  Solving for p, Initial residual = 9.42543e-06, Final residual = 9.18144e-07, No Iterations 561
time step continuity errors : sum local = 6.82584e-13, global = 1.07484e-14, cumulative = 2.31154e-10
ExecutionTime = 234.63 s  ClockTime = 234 s

Time = 75

Courant Number mean: 0.000285488 max: 0.272346
smoothSolver:  Solving for Ux, Initial residual = 0.00178975, Final residual = 2.01299e-08, No Iterations 1
smoothSolver:  Solving for Uy, Initial residual = 0.00178969, Final residual = 2.01283e-08, No Iterations 1
smoothSolver:  Solving for Uz, Initial residual = 0.000538192, Final residual = 4.98664e-09, No Iterations 1
DICPCG:  Solving for p, Initial residual = 0.000194894, Final residual = 8.80489e-06, No Iterations 14
time step continuity errors : sum local = 6.53271e-12, global = 3.47693e-13, cumulative = 2.31501e-10
DICPCG:  Solving for p, Initial residual = 9.59577e-06, Final residual = 9.18444e-07, No Iterations 561
time step continuity errors : sum local = 6.81361e-13, global = 9.43208e-15, cumulative = 2.31511e-10
ExecutionTime = 237.66 s  ClockTime = 237 s


    From virtual bool Foam::regIOobject::readIfModified()
    in file db/regIOobject/regIOobjectRead.C at line 282
        Re-reading object controlDict from file "/home/han/OpenFOAM/Github_files/thin_pipeflow_snappyHexMesh/snappy_pipe_potential/system/controlDict"
