/*---------------------------------------------------------------------------*\
| =========                 |                                                 |
| \\      /  F ield         | OpenFOAM: The Open Source CFD Toolbox           |
|  \\    /   O peration     | Version:  v2012                                 |
|   \\  /    A nd           | Website:  www.openfoam.com                      |
|    \\/     M anipulation  |                                                 |
\*---------------------------------------------------------------------------*/
Build  : _7bdb509494-20201222 OPENFOAM=2012
Arch   : "LSB;label=32;scalar=64"
Exec   : snappyHexMesh -overwrite
Date   : Oct 22 2022
Time   : 15:27:24
Host   : K5762147
PID    : 814
I/O    : uncollated
Case   : /home/han/OpenFOAM/Github_files/thin_pipeflow_snappyHexMesh/snappy_pipe_pisofoam
nProcs : 1
trapFpe: Floating point exception trapping enabled (FOAM_SIGFPE).
fileModificationChecking : Monitoring run-time modified files using timeStampMaster (fileModificationSkew 5, maxFileModificationPolls 20)
allowSystemOperations : Allowing user-supplied system call operations

// * * * * * * * * * * * * * * * * * * * * * * * * * * * * * * * * * * * * * //
Create time

Create mesh for time = 0

Read mesh in = 0.01 s

Overall mesh bounding box  : (-0.5 -0.5 -1) (1.5 1.5 41)
Relative tolerance         : 1e-06
Absolute matching distance : 4.20951e-05

Reading refinement surfaces.
Read refinement surfaces in = 0 s

Reading refinement shells.
Read refinement shells in = 0 s

Setting refinement level of surface to be consistent with shells.
For geometry snappy_pipe.stl detected 0 uncached triangles out of 92
Checked shell refinement in = 0 s

Reading features.
Read features in = 0 s


Determining initial surface intersections
-----------------------------------------

Edge intersection testing:
    Number of edges             : 8525
    Number of edges to retest   : 0
    Number of intersected edges : 0
Edge intersection testing:
    Number of edges             : 8525
    Number of edges to retest   : 8525
    Number of intersected edges : 1162
Calculated surface intersections in = 0.01 s

Initial mesh : cells:2500  faces:8525  points:3636
Cells per refinement level:
    0	2500

Adding patches for surface regions
----------------------------------

Patch Type                Region                        
----- ----                ------                        
snappy_pipe:

3     wall                snappy_pipe                   

Added patches in = 0 s

Edge intersection testing:
    Number of edges             : 8525
    Number of edges to retest   : 0
    Number of intersected edges : 1162
Selecting decompositionMethod none [1]

Refinement phase
----------------

Found point (0.5 0.5 20) in cell 1237 on processor 0

Surface refinement iteration 0
------------------------------

Marked for refinement due to surface intersection          : 1164 cells.
Marked for refinement due to curvature/regions             : 0 cells.
Determined cells to refine in = 0 s
Selected for refinement : 1164 cells (out of 2500)
Edge intersection testing:
    Number of edges             : 36491
    Number of edges to retest   : 35135
    Number of intersected edges : 3452
Refined mesh in = 0.03 s
After refinement surface refinement iteration 0 : cells:10648  faces:36491  points:15318
Cells per refinement level:
    0	1336
    1	9312

Surface refinement iteration 1
------------------------------

Marked for refinement due to surface intersection          : 5360 cells.
Marked for refinement due to curvature/regions             : 0 cells.
Determined cells to refine in = 0 s
Selected for refinement : 6230 cells (out of 10648)
Edge intersection testing:
    Number of edges             : 176030
    Number of edges to retest   : 175844
    Number of intersected edges : 15360
Refined mesh in = 0.12 s
After refinement surface refinement iteration 1 : cells:54258  faces:176030  points:67745
Cells per refinement level:
    0	466
    1	10912
    2	42880

Surface refinement iteration 2
------------------------------

Marked for refinement due to surface intersection          : 23048 cells.
Marked for refinement due to curvature/regions             : 0 cells.
Determined cells to refine in = 0 s
Selected for refinement : 25344 cells (out of 54258)
Edge intersection testing:
    Number of edges             : 756686
    Number of edges to retest   : 727548
    Number of intersected edges : 61576
Refined mesh in = 0.56 s
After refinement surface refinement iteration 2 : cells:231666  faces:756686  points:293601
Cells per refinement level:
    0	466
    1	8600
    2	38344
    3	184256

Surface refinement iteration 3
------------------------------

Marked for refinement due to surface intersection          : 64 cells.
Marked for refinement due to curvature/regions             : 200 cells.
Determined cells to refine in = 0.06 s
Selected for refinement : 304 cells (out of 231666)
Edge intersection testing:
    Number of edges             : 764390
    Number of edges to retest   : 12704
    Number of intersected edges : 62312
Refined mesh in = 0.34 s
After refinement surface refinement iteration 3 : cells:233794  faces:764390  points:297241
Cells per refinement level:
    0	466
    1	8584
    2	38384
    3	184760
    4	1600

Surface refinement iteration 4
------------------------------

Marked for refinement due to surface intersection          : 32 cells.
Marked for refinement due to curvature/regions             : 240 cells.
Determined cells to refine in = 0.07 s
Selected for refinement : 384 cells (out of 233794)
Edge intersection testing:
    Number of edges             : 773966
    Number of edges to retest   : 18192
    Number of intersected edges : 63552
Refined mesh in = 0.35 s
After refinement surface refinement iteration 4 : cells:236482  faces:773966  points:301545
Cells per refinement level:
    0	458
    1	8616
    2	38576
    3	185096
    4	2904
    5	832

Surface refinement iteration 5
------------------------------

Marked for refinement due to surface intersection          : 0 cells.
Marked for refinement due to curvature/regions             : 288 cells.
Determined cells to refine in = 0.07 s
Selected for refinement : 496 cells (out of 236482)
Edge intersection testing:
    Number of edges             : 786398
    Number of edges to retest   : 24192
    Number of intersected edges : 64896
Refined mesh in = 0.35 s
After refinement surface refinement iteration 5 : cells:239954  faces:786398  points:307249
Cells per refinement level:
    0	442
    1	8712
    2	38800
    3	185192
    4	3928
    5	2880

Surface refinement iteration 6
------------------------------

Marked for refinement due to surface intersection          : 0 cells.
Marked for refinement due to curvature/regions             : 80 cells.
Determined cells to refine in = 0.07 s
Selected for refinement : 96 cells (out of 239954)
Edge intersection testing:
    Number of edges             : 788798
    Number of edges to retest   : 6720
    Number of intersected edges : 65088
Refined mesh in = 0.37 s
After refinement surface refinement iteration 6 : cells:240626  faces:788798  points:308353
Cells per refinement level:
    0	442
    1	8712
    2	38800
    3	185160
    4	4120
    5	3392

Surface refinement iteration 7
------------------------------

Marked for refinement due to surface intersection          : 0 cells.
Marked for refinement due to curvature/regions             : 16 cells.
Determined cells to refine in = 0.07 s
Selected for refinement : 32 cells (out of 240626)
Edge intersection testing:
    Number of edges             : 789566
    Number of edges to retest   : 2864
    Number of intersected edges : 65088
Refined mesh in = 0.34 s
After refinement surface refinement iteration 7 : cells:240850  faces:789566  points:308689
Cells per refinement level:
    0	442
    1	8712
    2	38800
    3	185144
    4	4232
    5	3520

Surface refinement iteration 8
------------------------------

Marked for refinement due to surface intersection          : 0 cells.
Marked for refinement due to curvature/regions             : 0 cells.
Determined cells to refine in = 0.07 s
Selected for refinement : 0 cells (out of 240850)
Stopping refining since too few cells selected.


Removing mesh beyond surface intersections
------------------------------------------

Setting cellZones according to locationsInMesh:
Location : (0.5 0.5 20)
    cellZone : none

For cellZone none found point (0.5 0.5 20) in global region 1 out of 2 regions.
Keeping all cells containing inside points
Selected for keeping : 240850 cells.
Edge intersection testing:
    Number of edges             : 789566
    Number of edges to retest   : 0
    Number of intersected edges : 65088
Setting cellZones according to locationsInMesh:
Location : (0.5 0.5 20)
    cellZone : none

For cellZone none found point (0.5 0.5 20) in global region 1 out of 2 regions.
Keeping all cells containing inside points
Selected for keeping : 173370 cells.
Edge intersection testing:
    Number of edges             : 591878
    Number of edges to retest   : 81744
    Number of intersected edges : 65088

Shell refinement iteration 0
----------------------------

Marked for refinement due to distance to explicit features : 0 cells.
Marked for refinement due to refinement shells             : 0 cells.
Determined cells to refine in = 0.93 s
Selected for internal refinement : 10528 cells (out of 173370)
Edge intersection testing:
    Number of edges             : 809582
    Number of edges to retest   : 464816
    Number of intersected edges : 67256
Refined mesh in = 0.56 s
After refinement shell refinement iteration 0 : cells:247066  faces:809582  points:317885
Cells per refinement level:
    0	442
    1	4704
    2	12096
    3	207360
    4	7920
    5	14544

Shell refinement iteration 1
----------------------------

Marked for refinement due to distance to explicit features : 0 cells.
Marked for refinement due to refinement shells             : 0 cells.
Determined cells to refine in = 0.1 s
Selected for internal refinement : 1224 cells (out of 247066)
Edge intersection testing:
    Number of edges             : 837038
    Number of edges to retest   : 71304
    Number of intersected edges : 68912
Refined mesh in = 0.4 s
After refinement shell refinement iteration 1 : cells:255634  faces:837038  points:328213
Cells per refinement level:
    0	442
    1	4704
    2	12096
    3	207120
    4	8856
    5	22416

Shell refinement iteration 2
----------------------------

Marked for refinement due to distance to explicit features : 0 cells.
Marked for refinement due to refinement shells             : 0 cells.
Determined cells to refine in = 0.11 s
Selected for internal refinement : 48 cells (out of 255634)
Edge intersection testing:
    Number of edges             : 838166
    Number of edges to retest   : 3560
    Number of intersected edges : 68912
Refined mesh in = 0.41 s
After refinement shell refinement iteration 2 : cells:255970  faces:838166  points:328677
Cells per refinement level:
    0	442
    1	4704
    2	12096
    3	207104
    4	8952
    5	22672

Shell refinement iteration 3
----------------------------

Marked for refinement due to distance to explicit features : 0 cells.
Marked for refinement due to refinement shells             : 0 cells.
Determined cells to refine in = 0.11 s
Selected for internal refinement : 0 cells (out of 255970)
Stopping refining since too few cells selected.


Dangling coarse cells refinement iteration 0
--------------------------------------------

Determined cells to refine in = 0.01 s
Selected for refinement : 0 cells (out of 255970)
Stopping refining since too few cells selected.


Dangling coarse cells refinement iteration 0
--------------------------------------------

Determined cells to refine in = 0 s
Selected for refinement : 0 cells (out of 255970)
Stopping refining since too few cells selected.


Refinement transition refinement iteration 0
--------------------------------------------

Determined cells to refine in = 0.01 s
Selected for refinement : 0 cells (out of 255970)
Stopping refining since too few cells selected.


Splitting mesh at surface intersections
---------------------------------------

Introducing baffles for 68912 faces that are intersected by the surface.

Setting cellZones according to locationsInMesh:
Location : (0.5 0.5 20)
    cellZone : none

For cellZone none found point (0.5 0.5 20) in global region 1 out of 3 regions.
Edge intersection testing:
    Number of edges             : 907078
    Number of edges to retest   : 441860
    Number of intersected edges : 137472
Created baffles in = 0.54 s


After introducing baffles : cells:255970  faces:907078  points:328677
Cells per refinement level:
    0	442
    1	4704
    2	12096
    3	207104
    4	8952
    5	22672

Introducing baffles to block off problem cells
----------------------------------------------

markFacesOnProblemCells : marked 130132 additional internal faces to be converted into baffles.
Analyzed problem cells in = 0.3 s


Introducing baffles to delete problem cells.

Edge intersection testing:
    Number of edges             : 1037210
    Number of edges to retest   : 396800
    Number of intersected edges : 137472
Created baffles in = 0.42 s


After introducing baffles : cells:255970  faces:1037210  points:328677
Cells per refinement level:
    0	442
    1	4704
    2	12096
    3	207104
    4	8952
    5	22672
Setting cellZones according to locationsInMesh:
Location : (0.5 0.5 20)
    cellZone : none

For cellZone none found point (0.5 0.5 20) in global region 1 out of 64292 regions.
Edge intersection testing:
    Number of edges             : 1037210
    Number of edges to retest   : 515896
    Number of intersected edges : 137472

Remove unreachable sections of mesh
-----------------------------------

Keeping all cells containing points 1((0.5 0.5 20))
Selected for keeping : 168880 cells.
Edge intersection testing:
    Number of edges             : 558124
    Number of edges to retest   : 0
    Number of intersected edges : 68768
Split mesh in = 0.9 s


After subsetting : cells:168880  faces:558124  points:221281
Cells per refinement level:
    0	0
    1	0
    2	12096
    3	143272
    4	4584
    5	8928

Introducing zones for interfaces
--------------------------------

Setting cellZones according to locationsInMesh:
Location : (0.5 0.5 20)
    cellZone : none

For cellZone none found point (0.5 0.5 20) in global region 0 out of 1 regions.
Setting faceZones according to neighbouring cellZones:

Edge intersection testing:
    Number of edges             : 558124
    Number of edges to retest   : 0
    Number of intersected edges : 68768

Handling cells with snap problems
---------------------------------

Introducing baffles for 68768 faces that are intersected by the surface.

Setting cellZones according to locationsInMesh:
Location : (0.5 0.5 20)
    cellZone : none

For cellZone none found point (0.5 0.5 20) in global region 0 out of 1 regions.
Edge intersection testing:
    Number of edges             : 558124
    Number of edges to retest   : 212048
    Number of intersected edges : 68768
Created baffles in = 0.5 s


After introducing baffles : cells:168880  faces:558124  points:221281
Cells per refinement level:
    0	0
    1	0
    2	12096
    3	143272
    4	4584
    5	8928

Introducing baffles to block off problem cells
----------------------------------------------

markFacesOnProblemCells : marked 0 additional internal faces to be converted into baffles.
Analyzed problem cells in = 0.19 s


Introducing baffles to delete problem cells.

Created baffles in = 0.02 s


After introducing baffles : cells:168880  faces:558124  points:221281
Cells per refinement level:
    0	0
    1	0
    2	12096
    3	143272
    4	4584
    5	8928
Setting cellZones according to locationsInMesh:
Location : (0.5 0.5 20)
    cellZone : none

For cellZone none found point (0.5 0.5 20) in global region 0 out of 1 regions.
Edge intersection testing:
    Number of edges             : 558124
    Number of edges to retest   : 212048
    Number of intersected edges : 68768

Remove unreachable sections of mesh
-----------------------------------

Split mesh in = 0.34 s


After subsetting : cells:168880  faces:558124  points:221281
Cells per refinement level:
    0	0
    1	0
    2	12096
    3	143272
    4	4584
    5	8928

Merge free-standing baffles
---------------------------

freeStandingBaffles : detected 0 free-standing baffles out of 0

Detected free-standing baffles : 0
Merged free-standing baffles in = 0.06 s


dupNonManifoldPoints : Found : 0 non-manifold points (out of 221281)
Detected unsplittable baffles : 0

Merge refined boundary faces
----------------------------

Merging 160 sets of faces.

Edge intersection testing:
    Number of edges             : 557964
    Number of edges to retest   : 1504
    Number of intersected edges : 68608

Undo iteration 0
----------------
Checking faces in error :
    non-orthogonality > 65  degrees                        : 0
    faces with face pyramid volume < 1e-13                 : 0
    faces with face-decomposition tet quality < 1e-30      : 0
    faces with concavity > 80  degrees                     : 0
    faces with skewness > 4   (internal) or 20  (boundary) : 0
    faces with interpolation weights (0..1)  < 0.02        : 0
    faces with volume ratio of neighbour cells < 0.01      : 0
    faces with face twist < 0.02                           : 0
    faces on cells with determinant < 0.001                : 0

Merging all points on surface that
- are used by only two boundary faces and
- make an angle with a cosine of more than 0.707107.

Removing 160 straight edge points ...

Edge intersection testing:
    Number of edges             : 557964
    Number of edges to retest   : 1632
    Number of intersected edges : 68608

Undo iteration 0
----------------
Checking faces in error :
    non-orthogonality > 65  degrees                        : 0
    faces with face pyramid volume < 1e-13                 : 0
    faces with face-decomposition tet quality < 1e-30      : 0
    faces with concavity > 80  degrees                     : 0
    faces with skewness > 4   (internal) or 20  (boundary) : 0
    faces with interpolation weights (0..1)  < 0.02        : 0
    faces with volume ratio of neighbour cells < 0.01      : 0
    faces with face twist < 0.02                           : 0
    faces on cells with determinant < 0.001                : 0
Refined mesh : cells:168880  faces:557964  points:221121
Cells per refinement level:
    0	0
    1	0
    2	12096
    3	143272
    4	4584
    5	8928
Writing mesh to time constant
Wrote mesh in = 1.51 s.
Mesh refined in = 10.29 s.

Morphing phase
--------------

Duplicating 0 points on faceZones of type boundary
Snapping to features in 100 iterations ...
Constructing mesh displacer ...
Using mesh parameters 
{
    maxNonOrtho     65;
    maxBoundarySkewness 20;
    maxInternalSkewness 4;
    maxConcave      80;
    minFlatness     0.5;
    minVol          1e-13;
    minTetQuality   1e-30;
    minArea         -1;
    minTwist        0.02;
    minDeterminant  0.001;
    minFaceWeight   0.02;
    minVolRatio     0.01;
    minTriangleTwist -1;
    nSmoothScale    4;
    errorReduction  0.75;
}


Checking initial mesh ...
Checking faces in error :
    non-orthogonality > 65  degrees                        : 0
    faces with face pyramid volume < 1e-13                 : 0
    faces with face-decomposition tet quality < 1e-30      : 0
    faces with concavity > 80  degrees                     : 0
    faces with skewness > 4   (internal) or 20  (boundary) : 0
    faces with interpolation weights (0..1)  < 0.02        : 0
    faces with volume ratio of neighbour cells < 0.01      : 0
    faces with face twist < 0.02                           : 0
    faces on cells with determinant < 0.001                : 0
Detected 0 illegal faces (concave, zero area or negative cell pyramid volume)
Checked initial mesh in = 0.33 s


Smoothing patch points ...
Smoothing iteration 0
Found 0 non-manifold point(s).

Scaling iteration 0
Moving mesh using displacement scaling : min:1  max:1
Checking faces in error :
    non-orthogonality > 65  degrees                        : 0
    faces with face pyramid volume < 1e-13                 : 0
    faces with face-decomposition tet quality < 1e-30      : 0
    faces with concavity > 80  degrees                     : 0
    faces with skewness > 4   (internal) or 20  (boundary) : 0
    faces with interpolation weights (0..1)  < 0.02        : 0
    faces with volume ratio of neighbour cells < 0.01      : 0
    faces with face twist < 0.02                           : 0
    faces on cells with determinant < 0.001                : 0
Successfully moved mesh

Smoothing iteration 1
Found 0 non-manifold point(s).

Scaling iteration 0
Moving mesh using displacement scaling : min:1  max:1
Checking faces in error :
    non-orthogonality > 65  degrees                        : 0
    faces with face pyramid volume < 1e-13                 : 0
    faces with face-decomposition tet quality < 1e-30      : 0
    faces with concavity > 80  degrees                     : 0
    faces with skewness > 4   (internal) or 20  (boundary) : 0
    faces with interpolation weights (0..1)  < 0.02        : 0
    faces with volume ratio of neighbour cells < 0.01      : 0
    faces with face twist < 0.02                           : 0
    faces on cells with determinant < 0.001                : 0
Successfully moved mesh

Smoothing iteration 2
Found 0 non-manifold point(s).

Scaling iteration 0
Moving mesh using displacement scaling : min:1  max:1
Checking faces in error :
    non-orthogonality > 65  degrees                        : 0
    faces with face pyramid volume < 1e-13                 : 0
    faces with face-decomposition tet quality < 1e-30      : 0
    faces with concavity > 80  degrees                     : 0
    faces with skewness > 4   (internal) or 20  (boundary) : 0
    faces with interpolation weights (0..1)  < 0.02        : 0
    faces with volume ratio of neighbour cells < 0.01      : 0
    faces with face twist < 0.02                           : 0
    faces on cells with determinant < 0.001                : 0
Successfully moved mesh

Patch points smoothed in = 1.13 s



Morph iteration 0
-----------------
Calculating patchDisplacement as distance to nearest surface point ...
    non-zone points : attract to nearest of all non-zone surfaces
    zone points     : attract to zone surface only

Wanted displacement : average:0.00564301 min:1.26063e-06 max:0.0135071
Calculated surface displacement in = 0.02 s


Detecting near surfaces ...
Overriding nearest with intersection of close gaps at 0 out of 69258 points.
Overriding displacement on features :
   implicit features    : true
   explicit features    : false
   multi-patch features : false

Attraction:
    linear   : max:(0.0107159 0.0082226 -2.93654e-14) avg:(-1.80256e-05 -1.79619e-05 2.43871e-08)
    feature  : max:(0.0107159 0.0082226 0) avg:(-0.000121477 -0.000117221 2.61197e-08)
Feature analysis : total master points :69258 of which attracted to :
    feature point   : 0
    feature edge    : 640
    nearest surface : 68618
    rest            : 0

--> FOAM Warning : Displacement (4.18077e-08 3.14132e-08 1.43005e-07) at mesh point 216418 coord (0.86197 0.749932 -0.000760188) points through the surrounding patch faces
Smoothing displacement ...
Iteration 0
Iteration 10
Iteration 20
Displacement smoothed in = 0.45 s


Moving mesh ...

Iteration 0
Moving mesh using displacement scaling : min:1  max:1
Checking faces in error :
    non-orthogonality > 65  degrees                        : 0
    faces with face pyramid volume < 1e-13                 : 0
    faces with face-decomposition tet quality < 1e-30      : 0
    faces with concavity > 80  degrees                     : 0
    faces with skewness > 4   (internal) or 20  (boundary) : 0
    faces with interpolation weights (0..1)  < 0.02        : 0
    faces with volume ratio of neighbour cells < 0.01      : 0
    faces with face twist < 0.02                           : 0
    faces on cells with determinant < 0.001                : 0
Successfully moved mesh
Moved mesh in = 0.32 s



Morph iteration 1
-----------------
Calculating patchDisplacement as distance to nearest surface point ...
    non-zone points : attract to nearest of all non-zone surfaces
    zone points     : attract to zone surface only

Wanted displacement : average:0.0056155 min:1.08209e-05 max:0.0134586
Calculated surface displacement in = 0.03 s


Detecting near surfaces ...
Overriding nearest with intersection of close gaps at 0 out of 69258 points.
Overriding displacement on features :
   implicit features    : true
   explicit features    : false
   multi-patch features : false

Attraction:
    linear   : max:(0.00819306 0.0106774 -5.32907e-15) avg:(-1.79566e-05 -1.79043e-05 2.41489e-08)
    feature  : max:(0.00819306 0.0106774 0) avg:(-0.000119963 -0.000117503 2.58815e-08)
Feature analysis : total master points :69258 of which attracted to :
    feature point   : 0
    feature edge    : 640
    nearest surface : 68618
    rest            : 0

--> FOAM Warning : Displacement (1.66489e-07 1.253e-07 5.6069e-07) at mesh point 216418 coord (0.86197 0.749932 -0.000760045) points through the surrounding patch faces
Smoothing displacement ...
Iteration 0
Iteration 10
Iteration 20
Displacement smoothed in = 0.45 s


Moving mesh ...

Iteration 0
Moving mesh using displacement scaling : min:1  max:1
Checking faces in error :
    non-orthogonality > 65  degrees                        : 0
    faces with face pyramid volume < 1e-13                 : 0
    faces with face-decomposition tet quality < 1e-30      : 0
    faces with concavity > 80  degrees                     : 0
    faces with skewness > 4   (internal) or 20  (boundary) : 0
    faces with interpolation weights (0..1)  < 0.02        : 0
    faces with volume ratio of neighbour cells < 0.01      : 0
    faces with face twist < 0.02                           : 0
    faces on cells with determinant < 0.001                : 0
Successfully moved mesh
Moved mesh in = 0.32 s



Morph iteration 2
-----------------
Calculating patchDisplacement as distance to nearest surface point ...
    non-zone points : attract to nearest of all non-zone surfaces
    zone points     : attract to zone surface only

Wanted displacement : average:0.00556034 min:4.38129e-06 max:0.0133606
Calculated surface displacement in = 0.03 s


Detecting near surfaces ...
Overriding nearest with intersection of close gaps at 0 out of 69258 points.
Overriding displacement on features :
   implicit features    : true
   explicit features    : false
   multi-patch features : false

Attraction:
    linear   : max:(0.0105997 0.00813343 0) avg:(-1.7824e-05 -1.77821e-05 2.3677e-08)
    feature  : max:(0.0105997 0.00813343 0) avg:(-0.000118187 -0.000116834 2.54088e-08)
Feature analysis : total master points :69258 of which attracted to :
    feature point   : 0
    feature edge    : 640
    nearest surface : 68618
    rest            : 0

--> FOAM Warning : Displacement (3.74502e-07 2.81682e-07 1.4534e-06) at mesh point 216418 coord (0.86197 0.749932 -0.000759485) points through the surrounding patch faces
Smoothing displacement ...
Iteration 0
Iteration 10
Iteration 20
Displacement smoothed in = 0.44 s


Moving mesh ...

Iteration 0
Moving mesh using displacement scaling : min:1  max:1
Checking faces in error :
    non-orthogonality > 65  degrees                        : 0
    faces with face pyramid volume < 1e-13                 : 0
    faces with face-decomposition tet quality < 1e-30      : 0
    faces with concavity > 80  degrees                     : 0
    faces with skewness > 4   (internal) or 20  (boundary) : 0
    faces with interpolation weights (0..1)  < 0.02        : 0
    faces with volume ratio of neighbour cells < 0.01      : 0
    faces with face twist < 0.02                           : 0
    faces on cells with determinant < 0.001                : 0
Successfully moved mesh
Moved mesh in = 0.33 s



Morph iteration 3
-----------------
Calculating patchDisplacement as distance to nearest surface point ...
    non-zone points : attract to nearest of all non-zone surfaces
    zone points     : attract to zone surface only

Wanted displacement : average:0.00547802 min:3.16313e-06 max:0.0132134
Calculated surface displacement in = 0.03 s


Detecting near surfaces ...
Overriding nearest with intersection of close gaps at 0 out of 69258 points.
Overriding displacement on features :
   implicit features    : true
   explicit features    : false
   multi-patch features : false

Attraction:
    linear   : max:(0.0104829 0.0080438 0) avg:(-1.76255e-05 -1.76019e-05 2.2982e-08)
    feature  : max:(0.0104829 0.0080438 0) avg:(-0.000115637 -0.000115737 2.47123e-08)
Feature analysis : total master points :69258 of which attracted to :
    feature point   : 0
    feature edge    : 640
    nearest surface : 68618
    rest            : 0

--> FOAM Warning : Displacement (6.66628e-07 5.01788e-07 2.98519e-06) at mesh point 216418 coord (0.861971 0.749933 -0.000758031) points through the surrounding patch faces
Smoothing displacement ...
Iteration 0
Iteration 10
Iteration 20
Displacement smoothed in = 0.47 s


Moving mesh ...

Iteration 0
Moving mesh using displacement scaling : min:1  max:1
Checking faces in error :
    non-orthogonality > 65  degrees                        : 0
    faces with face pyramid volume < 1e-13                 : 0
    faces with face-decomposition tet quality < 1e-30      : 0
    faces with concavity > 80  degrees                     : 0
    faces with skewness > 4   (internal) or 20  (boundary) : 0
    faces with interpolation weights (0..1)  < 0.02        : 0
    faces with volume ratio of neighbour cells < 0.01      : 0
    faces with face twist < 0.02                           : 0
    faces on cells with determinant < 0.001                : 0
Successfully moved mesh
Moved mesh in = 0.34 s



Morph iteration 4
-----------------
Calculating patchDisplacement as distance to nearest surface point ...
    non-zone points : attract to nearest of all non-zone surfaces
    zone points     : attract to zone surface only

Wanted displacement : average:0.00536962 min:3.34151e-06 max:0.0130182
Calculated surface displacement in = 0.02 s


Detecting near surfaces ...
Overriding nearest with intersection of close gaps at 0 out of 69258 points.
Overriding displacement on features :
   implicit features    : true
   explicit features    : false
   multi-patch features : false

Attraction:
    linear   : max:(0.0103281 0.007925 0) avg:(-1.73746e-05 -1.73588e-05 2.20819e-08)
    feature  : max:(0.0103281 0.007925 0) avg:(-0.00011318 -0.000113523 2.38093e-08)
Feature analysis : total master points :69258 of which attracted to :
    feature point   : 0
    feature edge    : 640
    nearest surface : 68618
    rest            : 0

--> FOAM Warning : Displacement (5.23527e-07 3.90379e-07 1.06383e-06) at mesh point 30719 coord (0.846027 0.74971 -0.00034319) points through the surrounding patch faces
Smoothing displacement ...
Iteration 0
Iteration 10
Iteration 20
Displacement smoothed in = 0.43 s


Moving mesh ...

Iteration 0
Moving mesh using displacement scaling : min:1  max:1
Checking faces in error :
    non-orthogonality > 65  degrees                        : 0
    faces with face pyramid volume < 1e-13                 : 0
    faces with face-decomposition tet quality < 1e-30      : 0
    faces with concavity > 80  degrees                     : 0
    faces with skewness > 4   (internal) or 20  (boundary) : 0
    faces with interpolation weights (0..1)  < 0.02        : 0
    faces with volume ratio of neighbour cells < 0.01      : 0
    faces with face twist < 0.02                           : 0
    faces on cells with determinant < 0.001                : 0
Successfully moved mesh
Moved mesh in = 0.32 s



Morph iteration 5
-----------------
Calculating patchDisplacement as distance to nearest surface point ...
    non-zone points : attract to nearest of all non-zone surfaces
    zone points     : attract to zone surface only

Wanted displacement : average:0.00523703 min:2.3487e-06 max:0.0127774
Calculated surface displacement in = 0.02 s


Detecting near surfaces ...
Overriding nearest with intersection of close gaps at 0 out of 69258 points.
Overriding displacement on features :
   implicit features    : true
   explicit features    : false
   multi-patch features : false

Attraction:
    linear   : max:(0.010137 0.00777841 0) avg:(-1.70705e-05 -1.70664e-05 2.09997e-08)
    feature  : max:(0.010137 0.00777841 0) avg:(-0.000110184 -0.000110854 2.27227e-08)
Feature analysis : total master points :69258 of which attracted to :
    feature point   : 0
    feature edge    : 640
    nearest surface : 68618
    rest            : 0

--> FOAM Warning : Displacement (7.53859e-07 5.6399e-07 2.92565e-06) at mesh point 30719 coord (0.846027 0.749711 -0.000342126) points through the surrounding patch faces
Smoothing displacement ...
Iteration 0
Iteration 10
Iteration 20
Displacement smoothed in = 0.42 s


Moving mesh ...

Iteration 0
Moving mesh using displacement scaling : min:1  max:1
Checking faces in error :
    non-orthogonality > 65  degrees                        : 0
    faces with face pyramid volume < 1e-13                 : 0
    faces with face-decomposition tet quality < 1e-30      : 0
    faces with concavity > 80  degrees                     : 0
    faces with skewness > 4   (internal) or 20  (boundary) : 0
    faces with interpolation weights (0..1)  < 0.02        : 0
    faces with volume ratio of neighbour cells < 0.01      : 0
    faces with face twist < 0.02                           : 0
    faces on cells with determinant < 0.001                : 0
Successfully moved mesh
Moved mesh in = 0.32 s



Morph iteration 6
-----------------
Calculating patchDisplacement as distance to nearest surface point ...
    non-zone points : attract to nearest of all non-zone surfaces
    zone points     : attract to zone surface only

Wanted displacement : average:0.00509547 min:1.71658e-06 max:0.0124942
Calculated surface displacement in = 0.02 s


Detecting near surfaces ...
Overriding nearest with intersection of close gaps at 0 out of 69258 points.
Overriding displacement on features :
   implicit features    : true
   explicit features    : false
   multi-patch features : false

Attraction:
    linear   : max:(0.00991233 0.007606 0) avg:(-1.67267e-05 -1.67271e-05 1.97636e-08)
    feature  : max:(0.00991233 0.007606 0) avg:(-0.000106953 -0.000107647 2.14804e-08)
Feature analysis : total master points :69258 of which attracted to :
    feature point   : 0
    feature edge    : 640
    nearest surface : 68618
    rest            : 0

--> FOAM Warning : Displacement (1.02845e-06 7.67301e-07 5.42876e-06) at mesh point 30719 coord (0.846028 0.749711 -0.0003392) points through the surrounding patch faces
Smoothing displacement ...
Iteration 0
Iteration 10
Iteration 20
Displacement smoothed in = 0.43 s


Moving mesh ...

Iteration 0
Moving mesh using displacement scaling : min:1  max:1
Checking faces in error :
    non-orthogonality > 65  degrees                        : 0
    faces with face pyramid volume < 1e-13                 : 0
    faces with face-decomposition tet quality < 1e-30      : 0
    faces with concavity > 80  degrees                     : 0
    faces with skewness > 4   (internal) or 20  (boundary) : 0
    faces with interpolation weights (0..1)  < 0.02        : 0
    faces with volume ratio of neighbour cells < 0.01      : 0
    faces with face twist < 0.02                           : 0
    faces on cells with determinant < 0.001                : 0
Successfully moved mesh
Moved mesh in = 0.31 s



Morph iteration 7
-----------------
Calculating patchDisplacement as distance to nearest surface point ...
    non-zone points : attract to nearest of all non-zone surfaces
    zone points     : attract to zone surface only

Wanted displacement : average:0.00494041 min:6.22155e-07 max:0.0121725
Calculated surface displacement in = 0.03 s


Detecting near surfaces ...
Overriding nearest with intersection of close gaps at 0 out of 69258 points.
Overriding displacement on features :
   implicit features    : true
   explicit features    : false
   multi-patch features : false

Attraction:
    linear   : max:(0.00741014 0.00965708 3.58047e-14) avg:(-1.63507e-05 -1.63511e-05 1.84051e-08)
    feature  : max:(0.00741014 0.00965708 0) avg:(-0.000103784 -0.000103708 2.01136e-08)
Feature analysis : total master points :69258 of which attracted to :
    feature point   : 0
    feature edge    : 640
    nearest surface : 68618
    rest            : 0

--> FOAM Warning : Displacement (9.52659e-06 -1.8021e-05 -1.21726e-07) at mesh point 103224 coord (0.88027 0.831195 0.4175) points through the surrounding patch faces
Smoothing displacement ...
Iteration 0
Iteration 10
Iteration 20
Displacement smoothed in = 0.42 s


Moving mesh ...

Iteration 0
Moving mesh using displacement scaling : min:1  max:1
Checking faces in error :
    non-orthogonality > 65  degrees                        : 0
    faces with face pyramid volume < 1e-13                 : 0
    faces with face-decomposition tet quality < 1e-30      : 0
    faces with concavity > 80  degrees                     : 0
    faces with skewness > 4   (internal) or 20  (boundary) : 0
    faces with interpolation weights (0..1)  < 0.02        : 0
    faces with volume ratio of neighbour cells < 0.01      : 0
    faces with face twist < 0.02                           : 0
    faces on cells with determinant < 0.001                : 0
Successfully moved mesh
Moved mesh in = 0.32 s



Morph iteration 8
-----------------
Calculating patchDisplacement as distance to nearest surface point ...
    non-zone points : attract to nearest of all non-zone surfaces
    zone points     : attract to zone surface only

Wanted displacement : average:0.00476895 min:3.04055e-06 max:0.0118167
Calculated surface displacement in = 0.03 s


Detecting near surfaces ...
Overriding nearest with intersection of close gaps at 0 out of 69258 points.
Overriding displacement on features :
   implicit features    : true
   explicit features    : false
   multi-patch features : false

Attraction:
    linear   : max:(0.00719353 0.00937479 -2.02616e-14) avg:(-1.59495e-05 -1.59499e-05 1.6958e-08)
    feature  : max:(0.00719353 0.00937479 0) avg:(-9.98969e-05 -9.99794e-05 1.86558e-08)
Feature analysis : total master points :69258 of which attracted to :
    feature point   : 0
    feature edge    : 640
    nearest surface : 68618
    rest            : 0

--> FOAM Warning : Displacement (-5.39231e-06 -3.17751e-05 -1.58602e-07) at mesh point 103224 coord (0.88028 0.831177 0.4175) points through the surrounding patch faces
Smoothing displacement ...
Iteration 0
Iteration 10
Iteration 20
Displacement smoothed in = 0.41 s


Moving mesh ...

Iteration 0
Moving mesh using displacement scaling : min:1  max:1
Checking faces in error :
    non-orthogonality > 65  degrees                        : 0
    faces with face pyramid volume < 1e-13                 : 0
    faces with face-decomposition tet quality < 1e-30      : 0
    faces with concavity > 80  degrees                     : 0
    faces with skewness > 4   (internal) or 20  (boundary) : 0
    faces with interpolation weights (0..1)  < 0.02        : 0
    faces with volume ratio of neighbour cells < 0.01      : 0
    faces with face twist < 0.02                           : 0
    faces on cells with determinant < 0.001                : 0
Successfully moved mesh
Moved mesh in = 0.32 s



Morph iteration 9
-----------------
Calculating patchDisplacement as distance to nearest surface point ...
    non-zone points : attract to nearest of all non-zone surfaces
    zone points     : attract to zone surface only

Wanted displacement : average:0.00458312 min:3.20524e-06 max:0.0114315
Calculated surface displacement in = 0.03 s


Detecting near surfaces ...
Overriding nearest with intersection of close gaps at 0 out of 69258 points.
Overriding displacement on features :
   implicit features    : true
   explicit features    : false
   multi-patch features : false

Attraction:
    linear   : max:(0.00695907 0.00906924 4.10783e-15) avg:(-1.55321e-05 -1.55324e-05 1.54572e-08)
    feature  : max:(0.00448559 0.000590538 0.0111346) avg:(-9.62758e-05 -9.57119e-05 1.74084e-08)
Feature analysis : total master points :69258 of which attracted to :
    feature point   : 0
    feature edge    : 704
    nearest surface : 68554
    rest            : 0

--> FOAM Warning : Displacement (-2.3572e-05 -4.78155e-05 -2.00988e-07) at mesh point 103224 coord (0.880275 0.831145 0.417499) points through the surrounding patch faces
Smoothing displacement ...
Iteration 0
Iteration 10
Iteration 20
Displacement smoothed in = 0.41 s


Moving mesh ...

Iteration 0
Moving mesh using displacement scaling : min:1  max:1
Checking faces in error :
    non-orthogonality > 65  degrees                        : 0
    faces with face pyramid volume < 1e-13                 : 0
    faces with face-decomposition tet quality < 1e-30      : 0
    faces with concavity > 80  degrees                     : 0
    faces with skewness > 4   (internal) or 20  (boundary) : 0
    faces with interpolation weights (0..1)  < 0.02        : 0
    faces with volume ratio of neighbour cells < 0.01      : 0
    faces with face twist < 0.02                           : 0
    faces on cells with determinant < 0.001                : 0
Successfully moved mesh
Moved mesh in = 0.32 s



Morph iteration 10
-----------------
Calculating patchDisplacement as distance to nearest surface point ...
    non-zone points : attract to nearest of all non-zone surfaces
    zone points     : attract to zone surface only

Wanted displacement : average:0.00438434 min:4.86452e-06 max:0.011022
Calculated surface displacement in = 0.02 s


Detecting near surfaces ...
Overriding nearest with intersection of close gaps at 0 out of 69258 points.
Overriding displacement on features :
   implicit features    : true
   explicit features    : false
   multi-patch features : false

Attraction:
    linear   : max:(0.00670975 0.00874431 -6.55032e-15) avg:(-1.50986e-05 -1.51145e-05 1.39356e-08)
    feature  : max:(0.00670975 0.00874431 0) avg:(-9.20115e-05 -9.19424e-05 1.56026e-08)
Feature analysis : total master points :69258 of which attracted to :
    feature point   : 0
    feature edge    : 640
    nearest surface : 68618
    rest            : 0

--> FOAM Warning : Displacement (-4.44806e-05 -6.57183e-05 -2.48529e-07) at mesh point 103224 coord (0.880251 0.831097 0.417499) points through the surrounding patch faces
Smoothing displacement ...
Iteration 0
Iteration 10
Iteration 20
Displacement smoothed in = 0.43 s


Moving mesh ...

Iteration 0
Moving mesh using displacement scaling : min:1  max:1
Checking faces in error :
    non-orthogonality > 65  degrees                        : 0
    faces with face pyramid volume < 1e-13                 : 0
    faces with face-decomposition tet quality < 1e-30      : 0
    faces with concavity > 80  degrees                     : 0
    faces with skewness > 4   (internal) or 20  (boundary) : 0
    faces with interpolation weights (0..1)  < 0.02        : 0
    faces with volume ratio of neighbour cells < 0.01      : 0
    faces with face twist < 0.02                           : 0
    faces on cells with determinant < 0.001                : 0
Successfully moved mesh
Moved mesh in = 0.34 s



Morph iteration 11
-----------------
Calculating patchDisplacement as distance to nearest surface point ...
    non-zone points : attract to nearest of all non-zone surfaces
    zone points     : attract to zone surface only

Wanted displacement : average:0.00420019 min:1.43687e-07 max:0.0105928
Calculated surface displacement in = 0.02 s


Detecting near surfaces ...
Overriding nearest with intersection of close gaps at 0 out of 69258 points.
Overriding displacement on features :
   implicit features    : true
   explicit features    : false
   multi-patch features : false

Attraction:
    linear   : max:(0.00644852 0.00840387 -2.56462e-14) avg:(-1.46718e-05 -1.46871e-05 1.24255e-08)
    feature  : max:(0.00644852 0.00840387 0) avg:(-8.79168e-05 -8.78861e-05 1.40722e-08)
Feature analysis : total master points :69258 of which attracted to :
    feature point   : 0
    feature edge    : 640
    nearest surface : 68618
    rest            : 0

--> FOAM Warning : Displacement (-6.7469e-05 -8.49685e-05 -3.00496e-07) at mesh point 103224 coord (0.880206 0.831032 0.417499) points through the surrounding patch faces
Smoothing displacement ...
Iteration 0
Iteration 10
Iteration 20
Displacement smoothed in = 0.48 s


Moving mesh ...

Iteration 0
Moving mesh using displacement scaling : min:1  max:1
Checking faces in error :
    non-orthogonality > 65  degrees                        : 0
    faces with face pyramid volume < 1e-13                 : 0
    faces with face-decomposition tet quality < 1e-30      : 0
    faces with concavity > 80  degrees                     : 0
    faces with skewness > 4   (internal) or 20  (boundary) : 0
    faces with interpolation weights (0..1)  < 0.02        : 0
    faces with volume ratio of neighbour cells < 0.01      : 0
    faces with face twist < 0.02                           : 0
    faces on cells with determinant < 0.001                : 0
Successfully moved mesh
Moved mesh in = 0.35 s



Morph iteration 12
-----------------
Calculating patchDisplacement as distance to nearest surface point ...
    non-zone points : attract to nearest of all non-zone surfaces
    zone points     : attract to zone surface only

Wanted displacement : average:0.00402753 min:8.81027e-08 max:0.0101488
Calculated surface displacement in = 0.02 s


Detecting near surfaces ...
Overriding nearest with intersection of close gaps at 0 out of 69258 points.
Overriding displacement on features :
   implicit features    : true
   explicit features    : false
   multi-patch features : false

Attraction:
    linear   : max:(0.00617821 0.0080516 -2.12053e-14) avg:(-1.42489e-05 -1.42633e-05 1.0955e-08)
    feature  : max:(0.00372399 0.000490272 0.0107458) avg:(-8.4072e-05 -8.38682e-05 1.28156e-08)
Feature analysis : total master points :69258 of which attracted to :
    feature point   : 0
    feature edge    : 704
    nearest surface : 68554
    rest            : 0

--> FOAM Warning : Displacement (-9.18065e-05 -0.000104988 -3.55761e-07) at mesh point 103224 coord (0.880139 0.830947 0.417499) points through the surrounding patch faces
Smoothing displacement ...
Iteration 0
Iteration 10
Iteration 20
Displacement smoothed in = 0.48 s


Moving mesh ...

Iteration 0
Moving mesh using displacement scaling : min:1  max:1
Checking faces in error :
    non-orthogonality > 65  degrees                        : 0
    faces with face pyramid volume < 1e-13                 : 0
    faces with face-decomposition tet quality < 1e-30      : 0
    faces with concavity > 80  degrees                     : 0
    faces with skewness > 4   (internal) or 20  (boundary) : 0
    faces with interpolation weights (0..1)  < 0.02        : 0
    faces with volume ratio of neighbour cells < 0.01      : 0
    faces with face twist < 0.02                           : 0
    faces on cells with determinant < 0.001                : 0
Successfully moved mesh
Moved mesh in = 0.34 s



Morph iteration 13
-----------------
Calculating patchDisplacement as distance to nearest surface point ...
    non-zone points : attract to nearest of all non-zone surfaces
    zone points     : attract to zone surface only

Wanted displacement : average:0.00384662 min:1.37223e-06 max:0.00969423
Calculated surface displacement in = 0.03 s


Detecting near surfaces ...
Overriding nearest with intersection of close gaps at 0 out of 69258 points.
Overriding displacement on features :
   implicit features    : true
   explicit features    : false
   multi-patch features : false

Attraction:
    linear   : max:(0.00590147 0.00769095 0) avg:(-1.3833e-05 -1.38467e-05 9.54913e-09)
    feature  : max:(0.00590147 0.00769095 0) avg:(-8.01842e-05 -8.01401e-05 1.11446e-08)
Feature analysis : total master points :69258 of which attracted to :
    feature point   : 0
    feature edge    : 640
    nearest surface : 68618
    rest            : 0

--> FOAM Warning : Displacement (-0.000116718 -0.000125166 -4.12799e-07) at mesh point 103224 coord (0.880047 0.830842 0.417498) points through the surrounding patch faces
Smoothing displacement ...
Iteration 0
Iteration 10
Iteration 20
Displacement smoothed in = 0.45 s


Moving mesh ...

Iteration 0
Moving mesh using displacement scaling : min:1  max:1
Checking faces in error :
    non-orthogonality > 65  degrees                        : 0
    faces with face pyramid volume < 1e-13                 : 0
    faces with face-decomposition tet quality < 1e-30      : 0
    faces with concavity > 80  degrees                     : 0
    faces with skewness > 4   (internal) or 20  (boundary) : 0
    faces with interpolation weights (0..1)  < 0.02        : 0
    faces with volume ratio of neighbour cells < 0.01      : 0
    faces with face twist < 0.02                           : 0
    faces on cells with determinant < 0.001                : 0
Successfully moved mesh
Moved mesh in = 0.33 s



Morph iteration 14
-----------------
Calculating patchDisplacement as distance to nearest surface point ...
    non-zone points : attract to nearest of all non-zone surfaces
    zone points     : attract to zone surface only

Wanted displacement : average:0.00367015 min:3.9618e-07 max:0.00923298
Calculated surface displacement in = 0.02 s


Detecting near surfaces ...
Overriding nearest with intersection of close gaps at 0 out of 69258 points.
Overriding displacement on features :
   implicit features    : true
   explicit features    : false
   multi-patch features : false

Attraction:
    linear   : max:(0.00562069 0.00732502 0) avg:(-1.34256e-05 -1.34385e-05 8.22738e-09)
    feature  : max:(0.00743329 0.00570377 0.000983797) avg:(-7.64046e-05 -7.67481e-05 9.79185e-09)
Feature analysis : total master points :69258 of which attracted to :
    feature point   : 0
    feature edge    : 640
    nearest surface : 68618
    rest            : 0

--> FOAM Warning : Displacement (-0.000141423 -0.000144888 -4.69732e-07) at mesh point 103224 coord (0.87993 0.830717 0.417498) points through the surrounding patch faces
Smoothing displacement ...
Iteration 0
Iteration 10
Iteration 20
Displacement smoothed in = 0.43 s


Moving mesh ...

Iteration 0
Moving mesh using displacement scaling : min:1  max:1
Checking faces in error :
    non-orthogonality > 65  degrees                        : 0
    faces with face pyramid volume < 1e-13                 : 0
    faces with face-decomposition tet quality < 1e-30      : 0
    faces with concavity > 80  degrees                     : 0
    faces with skewness > 4   (internal) or 20  (boundary) : 0
    faces with interpolation weights (0..1)  < 0.02        : 0
    faces with volume ratio of neighbour cells < 0.01      : 0
    faces with face twist < 0.02                           : 0
    faces on cells with determinant < 0.001                : 0
Successfully moved mesh
Moved mesh in = 0.33 s



Morph iteration 15
-----------------
Calculating patchDisplacement as distance to nearest surface point ...
    non-zone points : attract to nearest of all non-zone surfaces
    zone points     : attract to zone surface only

Wanted displacement : average:0.00349603 min:6.22613e-07 max:0.00877245
Calculated surface displacement in = 0.03 s


Detecting near surfaces ...
Overriding nearest with intersection of close gaps at 0 out of 69258 points.
Overriding displacement on features :
   implicit features    : true
   explicit features    : false
   multi-patch features : false

Attraction:
    linear   : max:(0.00534033 0.00695965 0) avg:(-1.30262e-05 -1.30382e-05 7.00571e-09)
    feature  : max:(0.00726604 0.00557543 0.000836227) avg:(-7.30763e-05 -7.33774e-05 8.53488e-09)
Feature analysis : total master points :69258 of which attracted to :
    feature point   : 0
    feature edge    : 640
    nearest surface : 68618
    rest            : 0

--> FOAM Warning : Displacement (-4.18495e-05 1.89435e-05 -1.13631e-07) at mesh point 3824 coord (0.403896 0.00867425 0.364999) points through the surrounding patch faces
Smoothing displacement ...
Iteration 0
Iteration 10
Iteration 20
Displacement smoothed in = 0.43 s


Moving mesh ...

Iteration 0
Moving mesh using displacement scaling : min:1  max:1
Checking faces in error :
    non-orthogonality > 65  degrees                        : 0
    faces with face pyramid volume < 1e-13                 : 0
    faces with face-decomposition tet quality < 1e-30      : 0
    faces with concavity > 80  degrees                     : 0
    faces with skewness > 4   (internal) or 20  (boundary) : 0
    faces with interpolation weights (0..1)  < 0.02        : 0
    faces with volume ratio of neighbour cells < 0.01      : 0
    faces with face twist < 0.02                           : 0
    faces on cells with determinant < 0.001                : 0
Successfully moved mesh
Moved mesh in = 0.32 s



Morph iteration 16
-----------------
Calculating patchDisplacement as distance to nearest surface point ...
    non-zone points : attract to nearest of all non-zone surfaces
    zone points     : attract to zone surface only

Wanted displacement : average:0.00331557 min:2.09873e-06 max:0.00831237
Calculated surface displacement in = 0.02 s


Detecting near surfaces ...
Overriding nearest with intersection of close gaps at 0 out of 69258 points.
Overriding displacement on features :
   implicit features    : true
   explicit features    : false
   multi-patch features : false

Attraction:
    linear   : max:(0.00506025 0.00659465 0) avg:(-1.26329e-05 -1.2644e-05 5.89367e-09)
    feature  : max:(0.00708003 0.0054327 0.000702431) avg:(-7.02012e-05 -7.00818e-05 7.38372e-09)
Feature analysis : total master points :69258 of which attracted to :
    feature point   : 0
    feature edge    : 640
    nearest surface : 68618
    rest            : 0

--> FOAM Warning : Displacement (-3.60768e-05 4.73385e-05 -1.20888e-07) at mesh point 3824 coord (0.403854 0.0086932 0.364999) points through the surrounding patch faces
Smoothing displacement ...
Iteration 0
Iteration 10
Iteration 20
Displacement smoothed in = 0.4 s


Moving mesh ...

Iteration 0
Moving mesh using displacement scaling : min:1  max:1
Checking faces in error :
    non-orthogonality > 65  degrees                        : 0
    faces with face pyramid volume < 1e-13                 : 0
    faces with face-decomposition tet quality < 1e-30      : 0
    faces with concavity > 80  degrees                     : 0
    faces with skewness > 4   (internal) or 20  (boundary) : 0
    faces with interpolation weights (0..1)  < 0.02        : 0
    faces with volume ratio of neighbour cells < 0.01      : 0
    faces with face twist < 0.02                           : 0
    faces on cells with determinant < 0.001                : 0
Successfully moved mesh
Moved mesh in = 0.32 s



Morph iteration 17
-----------------
Calculating patchDisplacement as distance to nearest surface point ...
    non-zone points : attract to nearest of all non-zone surfaces
    zone points     : attract to zone surface only

Wanted displacement : average:0.00313027 min:2.1331e-06 max:0.00785421
Calculated surface displacement in = 0.03 s


Detecting near surfaces ...
Overriding nearest with intersection of close gaps at 0 out of 69258 points.
Overriding displacement on features :
   implicit features    : true
   explicit features    : false
   multi-patch features : false

Attraction:
    linear   : max:(0.00623117 0.00478134 -7.88258e-15) avg:(-1.22423e-05 -1.22526e-05 4.89742e-09)
    feature  : max:(0.00687542 0.0052757 0.000583018) avg:(-6.73541e-05 -6.73199e-05 6.34432e-09)
Feature analysis : total master points :69258 of which attracted to :
    feature point   : 0
    feature edge    : 640
    nearest surface : 68618
    rest            : 0

--> FOAM Warning : Displacement (-3.01989e-05 7.48212e-05 -1.28856e-07) at mesh point 3824 coord (0.403818 0.00874053 0.364999) points through the surrounding patch faces
Smoothing displacement ...
Iteration 0
Iteration 10
Iteration 20
Displacement smoothed in = 0.41 s


Moving mesh ...

Iteration 0
Moving mesh using displacement scaling : min:1  max:1
Checking faces in error :
    non-orthogonality > 65  degrees                        : 0
    faces with face pyramid volume < 1e-13                 : 0
    faces with face-decomposition tet quality < 1e-30      : 0
    faces with concavity > 80  degrees                     : 0
    faces with skewness > 4   (internal) or 20  (boundary) : 0
    faces with interpolation weights (0..1)  < 0.02        : 0
    faces with volume ratio of neighbour cells < 0.01      : 0
    faces with face twist < 0.02                           : 0
    faces on cells with determinant < 0.001                : 0
Successfully moved mesh
Moved mesh in = 0.32 s



Morph iteration 18
-----------------
Calculating patchDisplacement as distance to nearest surface point ...
    non-zone points : attract to nearest of all non-zone surfaces
    zone points     : attract to zone surface only

Wanted displacement : average:0.0029416 min:5.31371e-08 max:0.00740011
Calculated surface displacement in = 0.02 s


Detecting near surfaces ...
Overriding nearest with intersection of close gaps at 0 out of 69258 points.
Overriding displacement on features :
   implicit features    : true
   explicit features    : false
   multi-patch features : false

Attraction:
    linear   : max:(0.0058709 -0.0045049 0) avg:(-1.18503e-05 -1.18597e-05 4.01747e-09)
    feature  : max:(0.00665266 0.00510476 0.000478074) avg:(-6.4961e-05 -6.46773e-05 5.41771e-09)
Feature analysis : total master points :69258 of which attracted to :
    feature point   : 0
    feature edge    : 640
    nearest surface : 68618
    rest            : 0

--> FOAM Warning : Displacement (-2.43789e-05 0.000100668 -1.37414e-07) at mesh point 3824 coord (0.403788 0.00881536 0.364999) points through the surrounding patch faces
Smoothing displacement ...
Iteration 0
Iteration 10
Iteration 20
Displacement smoothed in = 0.42 s


Moving mesh ...

Iteration 0
Moving mesh using displacement scaling : min:1  max:1
Checking faces in error :
    non-orthogonality > 65  degrees                        : 0
    faces with face pyramid volume < 1e-13                 : 0
    faces with face-decomposition tet quality < 1e-30      : 0
    faces with concavity > 80  degrees                     : 0
    faces with skewness > 4   (internal) or 20  (boundary) : 0
    faces with interpolation weights (0..1)  < 0.02        : 0
    faces with volume ratio of neighbour cells < 0.01      : 0
    faces with face twist < 0.02                           : 0
    faces on cells with determinant < 0.001                : 0
Successfully moved mesh
Moved mesh in = 0.33 s



Morph iteration 19
-----------------
Calculating patchDisplacement as distance to nearest surface point ...
    non-zone points : attract to nearest of all non-zone surfaces
    zone points     : attract to zone surface only

Wanted displacement : average:0.0027513 min:2.24392e-06 max:0.00695174
Calculated surface displacement in = 0.02 s


Detecting near surfaces ...
Overriding nearest with intersection of close gaps at 0 out of 69258 points.
Overriding displacement on features :
   implicit features    : true
   explicit features    : false
   multi-patch features : false

Attraction:
    linear   : max:(0.00551519 -0.00423195 0) avg:(-1.14523e-05 -1.14609e-05 3.25244e-09)
    feature  : max:(0.0064125 0.00492048 0.00038724) avg:(-6.26135e-05 -6.24768e-05 4.60212e-09)
Feature analysis : total master points :69258 of which attracted to :
    feature point   : 0
    feature edge    : 640
    nearest surface : 68618
    rest            : 0

--> FOAM Warning : Displacement (-1.87564e-05 0.000124275 -1.46269e-07) at mesh point 3824 coord (0.403763 0.00891602 0.364999) points through the surrounding patch faces
Smoothing displacement ...
Iteration 0
Iteration 10
Iteration 20
Displacement smoothed in = 0.4 s


Moving mesh ...

Iteration 0
Moving mesh using displacement scaling : min:1  max:1
Checking faces in error :
    non-orthogonality > 65  degrees                        : 0
    faces with face pyramid volume < 1e-13                 : 0
    faces with face-decomposition tet quality < 1e-30      : 0
    faces with concavity > 80  degrees                     : 0
    faces with skewness > 4   (internal) or 20  (boundary) : 0
    faces with interpolation weights (0..1)  < 0.02        : 0
    faces with volume ratio of neighbour cells < 0.01      : 0
    faces with face twist < 0.02                           : 0
    faces on cells with determinant < 0.001                : 0
Successfully moved mesh
Moved mesh in = 0.33 s



Morph iteration 20
-----------------
Calculating patchDisplacement as distance to nearest surface point ...
    non-zone points : attract to nearest of all non-zone surfaces
    zone points     : attract to zone surface only

Wanted displacement : average:0.00256098 min:1.07822e-07 max:0.00651049
Calculated surface displacement in = 0.02 s


Detecting near surfaces ...
Overriding nearest with intersection of close gaps at 0 out of 69258 points.
Overriding displacement on features :
   implicit features    : true
   explicit features    : false
   multi-patch features : false

Attraction:
    linear   : max:(0.00516512 -0.00396333 0) avg:(-1.10438e-05 -1.10515e-05 2.59622e-09)
    feature  : max:(0.006156 0.00472366 0.000309792) avg:(-6.0669e-05 -6.04982e-05 3.89181e-09)
Feature analysis : total master points :69258 of which attracted to :
    feature point   : 0
    feature edge    : 640
    nearest surface : 68618
    rest            : 0

--> FOAM Warning : Displacement (1.10262e-07 -1.33946e-06 -6.64791e-06) at mesh point 180817 coord (0.903067 0.790199 0.0498243) points through the surrounding patch faces
Smoothing displacement ...
Iteration 0
Iteration 10
Iteration 20
Displacement smoothed in = 0.4 s


Moving mesh ...

Iteration 0
Moving mesh using displacement scaling : min:1  max:1
Checking faces in error :
    non-orthogonality > 65  degrees                        : 0
    faces with face pyramid volume < 1e-13                 : 0
    faces with face-decomposition tet quality < 1e-30      : 0
    faces with concavity > 80  degrees                     : 0
    faces with skewness > 4   (internal) or 20  (boundary) : 0
    faces with interpolation weights (0..1)  < 0.02        : 0
    faces with volume ratio of neighbour cells < 0.01      : 0
    faces with face twist < 0.02                           : 0
    faces on cells with determinant < 0.001                : 0
Successfully moved mesh
Moved mesh in = 0.32 s



Morph iteration 21
-----------------
Calculating patchDisplacement as distance to nearest surface point ...
    non-zone points : attract to nearest of all non-zone surfaces
    zone points     : attract to zone surface only

Wanted displacement : average:0.00237221 min:4.67298e-06 max:0.00607755
Calculated surface displacement in = 0.02 s


Detecting near surfaces ...
Overriding nearest with intersection of close gaps at 0 out of 69258 points.
Overriding displacement on features :
   implicit features    : true
   explicit features    : false
   multi-patch features : false

Attraction:
    linear   : max:(0.00482164 -0.00369978 0) avg:(-1.06207e-05 -1.06276e-05 2.04148e-09)
    feature  : max:(0.00588452 0.00451535 0.000244736) avg:(-5.88988e-05 -5.88582e-05 3.27999e-09)
Feature analysis : total master points :69258 of which attracted to :
    feature point   : 0
    feature edge    : 640
    nearest surface : 68618
    rest            : 0

--> FOAM Warning : Displacement (-1.97316e-06 -5.03256e-06 -6.03035e-06) at mesh point 10037 coord (0.897783 0.797336 0.0498598) points through the surrounding patch faces
Smoothing displacement ...
Iteration 0
Iteration 10
Iteration 20
Displacement smoothed in = 0.4 s


Moving mesh ...

Iteration 0
Moving mesh using displacement scaling : min:1  max:1
Checking faces in error :
    non-orthogonality > 65  degrees                        : 0
    faces with face pyramid volume < 1e-13                 : 0
    faces with face-decomposition tet quality < 1e-30      : 0
    faces with concavity > 80  degrees                     : 0
    faces with skewness > 4   (internal) or 20  (boundary) : 0
    faces with interpolation weights (0..1)  < 0.02        : 0
    faces with volume ratio of neighbour cells < 0.01      : 0
    faces with face twist < 0.02                           : 0
    faces on cells with determinant < 0.001                : 0
Successfully moved mesh
Moved mesh in = 0.32 s



Morph iteration 22
-----------------
Calculating patchDisplacement as distance to nearest surface point ...
    non-zone points : attract to nearest of all non-zone surfaces
    zone points     : attract to zone surface only

Wanted displacement : average:0.00218623 min:4.07973e-07 max:0.00565401
Calculated surface displacement in = 0.02 s


Detecting near surfaces ...
Overriding nearest with intersection of close gaps at 0 out of 69258 points.
Overriding displacement on features :
   implicit features    : true
   explicit features    : false
   multi-patch features : false

Attraction:
    linear   : max:(-0.00448562 -0.00344194 0) avg:(-1.01797e-05 -1.01857e-05 1.57842e-09)
    feature  : max:(0.00559971 0.00429681 0.000190894) avg:(-5.74081e-05 -5.74102e-05 2.75691e-09)
Feature analysis : total master points :69258 of which attracted to :
    feature point   : 0
    feature edge    : 640
    nearest surface : 68618
    rest            : 0

--> FOAM Warning : Displacement (-1.30418e-05 -1.34607e-05 -5.58817e-06) at mesh point 10037 coord (0.897781 0.797331 0.0498538) points through the surrounding patch faces
Smoothing displacement ...
Iteration 0
Iteration 10
Iteration 20
Displacement smoothed in = 0.39 s


Moving mesh ...

Iteration 0
Moving mesh using displacement scaling : min:1  max:1
Checking faces in error :
    non-orthogonality > 65  degrees                        : 0
    faces with face pyramid volume < 1e-13                 : 0
    faces with face-decomposition tet quality < 1e-30      : 0
    faces with concavity > 80  degrees                     : 0
    faces with skewness > 4   (internal) or 20  (boundary) : 0
    faces with interpolation weights (0..1)  < 0.02        : 0
    faces with volume ratio of neighbour cells < 0.01      : 0
    faces with face twist < 0.02                           : 0
    faces on cells with determinant < 0.001                : 0
Successfully moved mesh
Moved mesh in = 0.31 s



Morph iteration 23
-----------------
Calculating patchDisplacement as distance to nearest surface point ...
    non-zone points : attract to nearest of all non-zone surfaces
    zone points     : attract to zone surface only

Wanted displacement : average:0.00200441 min:2.77527e-07 max:0.0052408
Calculated surface displacement in = 0.03 s


Detecting near surfaces ...
Overriding nearest with intersection of close gaps at 0 out of 69258 points.
Overriding displacement on features :
   implicit features    : true
   explicit features    : false
   multi-patch features : false

Attraction:
    linear   : max:(-0.00415781 -0.0031904 0) avg:(-9.71847e-06 -9.72368e-06 1.19754e-09)
    feature  : max:(0.00530348 0.00406951 0.000146988) avg:(-5.61245e-05 -5.6181e-05 2.3136e-09)
Feature analysis : total master points :69258 of which attracted to :
    feature point   : 0
    feature edge    : 640
    nearest surface : 68618
    rest            : 0

--> FOAM Warning : Displacement (-2.26124e-05 -2.06557e-05 -5.19832e-06) at mesh point 10037 coord (0.897768 0.797318 0.0498482) points through the surrounding patch faces
Smoothing displacement ...
Iteration 0
Iteration 10
Iteration 20
Displacement smoothed in = 0.4 s


Moving mesh ...

Iteration 0
Moving mesh using displacement scaling : min:1  max:1
Checking faces in error :
    non-orthogonality > 65  degrees                        : 0
    faces with face pyramid volume < 1e-13                 : 0
    faces with face-decomposition tet quality < 1e-30      : 0
    faces with concavity > 80  degrees                     : 0
    faces with skewness > 4   (internal) or 20  (boundary) : 0
    faces with interpolation weights (0..1)  < 0.02        : 0
    faces with volume ratio of neighbour cells < 0.01      : 0
    faces with face twist < 0.02                           : 0
    faces on cells with determinant < 0.001                : 0
Successfully moved mesh
Moved mesh in = 0.32 s



Morph iteration 24
-----------------
Calculating patchDisplacement as distance to nearest surface point ...
    non-zone points : attract to nearest of all non-zone surfaces
    zone points     : attract to zone surface only

Wanted displacement : average:0.00182799 min:7.8217e-07 max:0.00483886
Calculated surface displacement in = 0.02 s


Detecting near surfaces ...
Overriding nearest with intersection of close gaps at 0 out of 69258 points.
Overriding displacement on features :
   implicit features    : true
   explicit features    : false
   multi-patch features : false

Attraction:
    linear   : max:(-0.00383893 -0.00294571 0) avg:(-9.23702e-06 -9.2413e-06 8.86967e-10)
    feature  : max:(0.004998 0.0038351 0.000111711) avg:(-5.50785e-05 -5.50917e-05 1.93892e-09)
Feature analysis : total master points :69258 of which attracted to :
    feature point   : 0
    feature edge    : 640
    nearest surface : 68618
    rest            : 0

--> FOAM Warning : Displacement (-3.05939e-05 -2.65596e-05 -4.8553e-06) at mesh point 10037 coord (0.897746 0.797297 0.049843) points through the surrounding patch faces
Smoothing displacement ...
Iteration 0
Iteration 10
Iteration 20
Displacement smoothed in = 0.4 s


Moving mesh ...

Iteration 0
Moving mesh using displacement scaling : min:1  max:1
Checking faces in error :
    non-orthogonality > 65  degrees                        : 0
    faces with face pyramid volume < 1e-13                 : 0
    faces with face-decomposition tet quality < 1e-30      : 0
    faces with concavity > 80  degrees                     : 0
    faces with skewness > 4   (internal) or 20  (boundary) : 0
    faces with interpolation weights (0..1)  < 0.02        : 0
    faces with volume ratio of neighbour cells < 0.01      : 0
    faces with face twist < 0.02                           : 0
    faces on cells with determinant < 0.001                : 0
Successfully moved mesh
Moved mesh in = 0.32 s



Morph iteration 25
-----------------
Calculating patchDisplacement as distance to nearest surface point ...
    non-zone points : attract to nearest of all non-zone surfaces
    zone points     : attract to zone surface only

Wanted displacement : average:0.00165814 min:1.63637e-07 max:0.00444912
Calculated surface displacement in = 0.02 s


Detecting near surfaces ...
Overriding nearest with intersection of close gaps at 0 out of 69258 points.
Overriding displacement on features :
   implicit features    : true
   explicit features    : false
   multi-patch features : false

Attraction:
    linear   : max:(-0.00352972 -0.00270845 0) avg:(-8.7349e-06 -8.7384e-06 6.38441e-10)
    feature  : max:(0.00468563 0.00359541 8.37834e-05) avg:(-5.41419e-05 -5.41678e-05 1.62462e-09)
Feature analysis : total master points :69258 of which attracted to :
    feature point   : 0
    feature edge    : 640
    nearest surface : 68618
    rest            : 0

--> FOAM Warning : Displacement (-3.69519e-05 -3.11618e-05 -4.55156e-06) at mesh point 10037 coord (0.897715 0.797271 0.0498381) points through the surrounding patch faces
Smoothing displacement ...
Iteration 0
Iteration 10
Iteration 20
Displacement smoothed in = 0.41 s


Moving mesh ...

Iteration 0
Moving mesh using displacement scaling : min:1  max:1
Checking faces in error :
    non-orthogonality > 65  degrees                        : 0
    faces with face pyramid volume < 1e-13                 : 0
    faces with face-decomposition tet quality < 1e-30      : 0
    faces with concavity > 80  degrees                     : 0
    faces with skewness > 4   (internal) or 20  (boundary) : 0
    faces with interpolation weights (0..1)  < 0.02        : 0
    faces with volume ratio of neighbour cells < 0.01      : 0
    faces with face twist < 0.02                           : 0
    faces on cells with determinant < 0.001                : 0
Successfully moved mesh
Moved mesh in = 0.31 s



Morph iteration 26
-----------------
Calculating patchDisplacement as distance to nearest surface point ...
    non-zone points : attract to nearest of all non-zone surfaces
    zone points     : attract to zone surface only

Wanted displacement : average:0.00149598 min:1.63797e-07 max:0.00407253
Calculated surface displacement in = 0.03 s


Detecting near surfaces ...
Overriding nearest with intersection of close gaps at 0 out of 69258 points.
Overriding displacement on features :
   implicit features    : true
   explicit features    : false
   multi-patch features : false

Attraction:
    linear   : max:(-0.00323096 -0.0024792 0) avg:(-8.21378e-06 -8.21657e-06 4.38911e-10)
    feature  : max:(0.00436888 0.00335236 6.19997e-05) avg:(-5.33628e-05 -5.34248e-05 1.35834e-09)
Feature analysis : total master points :69258 of which attracted to :
    feature point   : 0
    feature edge    : 640
    nearest surface : 68618
    rest            : 0

--> FOAM Warning : Displacement (-4.17043e-05 -3.44952e-05 -4.27858e-06) at mesh point 10037 coord (0.897678 0.797239 0.0498336) points through the surrounding patch faces
Smoothing displacement ...
Iteration 0
Iteration 10
Iteration 20
Displacement smoothed in = 0.4 s


Moving mesh ...

Iteration 0
Moving mesh using displacement scaling : min:1  max:1
Checking faces in error :
    non-orthogonality > 65  degrees                        : 0
    faces with face pyramid volume < 1e-13                 : 0
    faces with face-decomposition tet quality < 1e-30      : 0
    faces with concavity > 80  degrees                     : 0
    faces with skewness > 4   (internal) or 20  (boundary) : 0
    faces with interpolation weights (0..1)  < 0.02        : 0
    faces with volume ratio of neighbour cells < 0.01      : 0
    faces with face twist < 0.02                           : 0
    faces on cells with determinant < 0.001                : 0
Successfully moved mesh
Moved mesh in = 0.33 s



Morph iteration 27
-----------------
Calculating patchDisplacement as distance to nearest surface point ...
    non-zone points : attract to nearest of all non-zone surfaces
    zone points     : attract to zone surface only

Wanted displacement : average:0.00134852 min:2.31886e-07 max:0.00371008
Calculated surface displacement in = 0.02 s


Detecting near surfaces ...
Overriding nearest with intersection of close gaps at 0 out of 69258 points.
Overriding displacement on features :
   implicit features    : true
   explicit features    : false
   multi-patch features : false

Attraction:
    linear   : max:(-0.0029434 -0.00225855 0) avg:(-7.84777e-06 -7.81738e-06 2.83018e-10)
    feature  : max:(0.00405039 0.00310797 4.52598e-05) avg:(-5.27528e-05 -5.27803e-05 1.13564e-09)
Feature analysis : total master points :69258 of which attracted to :
    feature point   : 0
    feature edge    : 640
    nearest surface : 68618
    rest            : 0

--> FOAM Warning : Displacement (2.1236e-07 -4.9054e-08 4.60274e-06) at mesh point 188323 coord (0.798808 0.325752 -0.000249609) points through the surrounding patch faces
Smoothing displacement ...
Iteration 0
Iteration 10
Iteration 20
Displacement smoothed in = 0.43 s


Moving mesh ...

Iteration 0
Moving mesh using displacement scaling : min:1  max:1
Checking faces in error :
    non-orthogonality > 65  degrees                        : 0
    faces with face pyramid volume < 1e-13                 : 0
    faces with face-decomposition tet quality < 1e-30      : 0
    faces with concavity > 80  degrees                     : 0
    faces with skewness > 4   (internal) or 20  (boundary) : 0
    faces with interpolation weights (0..1)  < 0.02        : 0
    faces with volume ratio of neighbour cells < 0.01      : 0
    faces with face twist < 0.02                           : 0
    faces on cells with determinant < 0.001                : 0
Successfully moved mesh
Moved mesh in = 0.31 s



Morph iteration 28
-----------------
Calculating patchDisplacement as distance to nearest surface point ...
    non-zone points : attract to nearest of all non-zone surfaces
    zone points     : attract to zone surface only

Wanted displacement : average:0.00121156 min:1.69838e-07 max:0.00336275
Calculated surface displacement in = 0.02 s


Detecting near surfaces ...
Overriding nearest with intersection of close gaps at 0 out of 69258 points.
Overriding displacement on features :
   implicit features    : true
   explicit features    : false
   multi-patch features : false

Attraction:
    linear   : max:(-0.00266785 -0.00204711 0) avg:(-7.48698e-06 -7.42978e-06 1.5906e-10)
    feature  : max:(0.00373284 0.00286431 3.2587e-05) avg:(-5.21842e-05 -5.23187e-05 9.44629e-10)
Feature analysis : total master points :69258 of which attracted to :
    feature point   : 0
    feature edge    : 640
    nearest surface : 68618
    rest            : 0

--> FOAM Warning : Displacement (2.04802e-07 -4.74986e-08 8.52695e-06) at mesh point 188323 coord (0.798808 0.325752 -0.000245006) points through the surrounding patch faces
Smoothing displacement ...
Iteration 0
Iteration 10
Iteration 20
Displacement smoothed in = 0.44 s


Moving mesh ...

Iteration 0
Moving mesh using displacement scaling : min:1  max:1
Checking faces in error :
    non-orthogonality > 65  degrees                        : 0
    faces with face pyramid volume < 1e-13                 : 0
    faces with face-decomposition tet quality < 1e-30      : 0
    faces with concavity > 80  degrees                     : 0
    faces with skewness > 4   (internal) or 20  (boundary) : 0
    faces with interpolation weights (0..1)  < 0.02        : 0
    faces with volume ratio of neighbour cells < 0.01      : 0
    faces with face twist < 0.02                           : 0
    faces on cells with determinant < 0.001                : 0
Successfully moved mesh
Moved mesh in = 0.32 s



Morph iteration 29
-----------------
Calculating patchDisplacement as distance to nearest surface point ...
    non-zone points : attract to nearest of all non-zone surfaces
    zone points     : attract to zone surface only

Wanted displacement : average:0.00108272 min:6.27999e-08 max:0.00303151
Calculated surface displacement in = 0.02 s


Detecting near surfaces ...
Overriding nearest with intersection of close gaps at 0 out of 69258 points.
Overriding displacement on features :
   implicit features    : true
   explicit features    : false
   multi-patch features : false

Attraction:
    linear   : max:(-0.00240506 -0.00184547 0) avg:(-7.08239e-06 -7.00103e-06 6.43447e-11)
    feature  : max:(0.0034189 0.00262342 2.31368e-05) avg:(-5.17151e-05 -5.18746e-05 7.83969e-10)
Feature analysis : total master points :69258 of which attracted to :
    feature point   : 0
    feature edge    : 640
    nearest surface : 68618
    rest            : 0

[...]
Overriding displacement on features :
   implicit features    : true
   explicit features    : false
   multi-patch features : false

Attraction:
    linear   : max:(0.000576646 0.000238855 -5.81949e-16) avg:(6.23113e-09 6.3898e-09 -7.41537e-12)
    feature  : max:(0.00459805 0.000605343 0) avg:(-4.9277e-05 -4.92829e-05 -7.42191e-12)
Feature analysis : total master points :69258 of which attracted to :
    feature point   : 0
    feature edge    : 640
    nearest surface : 68618
    rest            : 0

--> FOAM Warning : Displacement (-3.89774e-13 2.05418e-13 8.62165e-14) at mesh point 103104 coord (0.350098 0.3001 9.99998e-07) points through the surrounding patch faces
Smoothing displacement ...
Iteration 0
Iteration 10
Iteration 20
Displacement smoothed in = 0.48 s


Moving mesh ...

Iteration 0
Moving mesh using displacement scaling : min:1  max:1
Checking faces in error :
    non-orthogonality > 65  degrees                        : 0
    faces with face pyramid volume < 1e-13                 : 0
    faces with face-decomposition tet quality < 1e-30      : 0
    faces with concavity > 80  degrees                     : 0
    faces with skewness > 4   (internal) or 20  (boundary) : 0
    faces with interpolation weights (0..1)  < 0.02        : 0
    faces with volume ratio of neighbour cells < 0.01      : 0
    faces with face twist < 0.02                           : 0
    faces on cells with determinant < 0.001                : 0
Successfully moved mesh
Moved mesh in = 0.35 s



Morph iteration 92
-----------------
Calculating patchDisplacement as distance to nearest surface point ...
    non-zone points : attract to nearest of all non-zone surfaces
    zone points     : attract to zone surface only

Wanted displacement : average:9.29907e-08 min:0 max:0.00062791
Calculated surface displacement in = 0.02 s


Detecting near surfaces ...
Overriding nearest with intersection of close gaps at 0 out of 69258 points.
Overriding displacement on features :
   implicit features    : true
   explicit features    : false
   multi-patch features : false

Attraction:
    linear   : max:(0.000580113 0.000240291 7.05887e-15) avg:(6.26602e-09 6.42573e-09 -7.48558e-12)
    feature  : max:(0.00459805 0.000605343 0) avg:(-4.92768e-05 -4.92827e-05 -7.45457e-12)
Feature analysis : total master points :69258 of which attracted to :
    feature point   : 0
    feature edge    : 640
    nearest surface : 68618
    rest            : 0

--> FOAM Warning : Displacement (-3.59765e-13 1.73969e-13 1.10205e-13) at mesh point 103104 coord (0.350098 0.3001 9.99998e-07) points through the surrounding patch faces
Smoothing displacement ...
Iteration 0
Iteration 10
Iteration 20
Displacement smoothed in = 0.45 s


Moving mesh ...

Iteration 0
Moving mesh using displacement scaling : min:1  max:1
Checking faces in error :
    non-orthogonality > 65  degrees                        : 0
    faces with face pyramid volume < 1e-13                 : 0
    faces with face-decomposition tet quality < 1e-30      : 0
    faces with concavity > 80  degrees                     : 0
    faces with skewness > 4   (internal) or 20  (boundary) : 0
    faces with interpolation weights (0..1)  < 0.02        : 0
    faces with volume ratio of neighbour cells < 0.01      : 0
    faces with face twist < 0.02                           : 0
    faces on cells with determinant < 0.001                : 0
Successfully moved mesh
Moved mesh in = 0.34 s



Morph iteration 93
-----------------
Calculating patchDisplacement as distance to nearest surface point ...
    non-zone points : attract to nearest of all non-zone surfaces
    zone points     : attract to zone surface only

Wanted displacement : average:9.35747e-08 min:0 max:0.000631903
Calculated surface displacement in = 0.02 s


Detecting near surfaces ...
Overriding nearest with intersection of close gaps at 0 out of 69258 points.
Overriding displacement on features :
   implicit features    : true
   explicit features    : false
   multi-patch features : false

Attraction:
    linear   : max:(0.000583802 0.000241819 -4.65822e-16) avg:(6.30338e-09 6.4642e-09 -7.41304e-12)
    feature  : max:(0.00459805 0.000605343 0) avg:(-4.92766e-05 -4.92825e-05 -7.50805e-12)
Feature analysis : total master points :69258 of which attracted to :
    feature point   : 0
    feature edge    : 640
    nearest surface : 68618
    rest            : 0

--> FOAM Warning : Displacement (-3.29027e-13 1.41215e-13 1.34767e-13) at mesh point 103104 coord (0.350098 0.3001 9.99999e-07) points through the surrounding patch faces
Smoothing displacement ...
Iteration 0
Iteration 10
Iteration 20
Displacement smoothed in = 0.52 s


Moving mesh ...

Iteration 0
Moving mesh using displacement scaling : min:1  max:1
Checking faces in error :
    non-orthogonality > 65  degrees                        : 0
    faces with face pyramid volume < 1e-13                 : 0
    faces with face-decomposition tet quality < 1e-30      : 0
    faces with concavity > 80  degrees                     : 0
    faces with skewness > 4   (internal) or 20  (boundary) : 0
    faces with interpolation weights (0..1)  < 0.02        : 0
    faces with volume ratio of neighbour cells < 0.01      : 0
    faces with face twist < 0.02                           : 0
    faces on cells with determinant < 0.001                : 0
Successfully moved mesh
Moved mesh in = 0.38 s



Morph iteration 94
-----------------
Calculating patchDisplacement as distance to nearest surface point ...
    non-zone points : attract to nearest of all non-zone surfaces
    zone points     : attract to zone surface only

Wanted displacement : average:9.42009e-08 min:0 max:0.000636156
Calculated surface displacement in = 0.03 s


Detecting near surfaces ...
Overriding nearest with intersection of close gaps at 0 out of 69258 points.
Overriding displacement on features :
   implicit features    : true
   explicit features    : false
   multi-patch features : false

Attraction:
    linear   : max:(0.000587731 0.000243446 -7.13338e-15) avg:(6.34342e-09 6.5054e-09 -7.64488e-12)
    feature  : max:(0.00459805 0.000605343 0) avg:(-4.92764e-05 -4.92823e-05 -7.58281e-12)
Feature analysis : total master points :69258 of which attracted to :
    feature point   : 0
    feature edge    : 640
    nearest surface : 68618
    rest            : 0

--> FOAM Warning : Displacement (-2.9748e-13 1.07174e-13 1.60366e-13) at mesh point 103104 coord (0.350098 0.3001 9.99999e-07) points through the surrounding patch faces
Smoothing displacement ...
Iteration 0
Iteration 10
Iteration 20
Displacement smoothed in = 0.47 s


Moving mesh ...

Iteration 0
Moving mesh using displacement scaling : min:1  max:1
Checking faces in error :
    non-orthogonality > 65  degrees                        : 0
    faces with face pyramid volume < 1e-13                 : 0
    faces with face-decomposition tet quality < 1e-30      : 0
    faces with concavity > 80  degrees                     : 0
    faces with skewness > 4   (internal) or 20  (boundary) : 0
    faces with interpolation weights (0..1)  < 0.02        : 0
    faces with volume ratio of neighbour cells < 0.01      : 0
    faces with face twist < 0.02                           : 0
    faces on cells with determinant < 0.001                : 0
Successfully moved mesh
Moved mesh in = 0.36 s



Morph iteration 95
-----------------
Calculating patchDisplacement as distance to nearest surface point ...
    non-zone points : attract to nearest of all non-zone surfaces
    zone points     : attract to zone surface only

Wanted displacement : average:9.48695e-08 min:0 max:0.000640691
Calculated surface displacement in = 0.02 s


Detecting near surfaces ...
Overriding nearest with intersection of close gaps at 0 out of 69258 points.
Overriding displacement on features :
   implicit features    : true
   explicit features    : false
   multi-patch features : false

Attraction:
    linear   : max:(0.000591922 0.000245182 3.36111e-16) avg:(6.38635e-09 6.54956e-09 -7.64011e-12)
    feature  : max:(0.00459805 0.000605343 0) avg:(-4.92762e-05 -4.92821e-05 -7.67938e-12)
Feature analysis : total master points :69258 of which attracted to :
    feature point   : 0
    feature edge    : 640
    nearest surface : 68618
    rest            : 0

--> FOAM Warning : Displacement (-2.65028e-13 7.17046e-14 1.87474e-13) at mesh point 103104 coord (0.350098 0.3001 9.99999e-07) points through the surrounding patch faces
Smoothing displacement ...
Iteration 0
Iteration 10
Iteration 20
Displacement smoothed in = 0.51 s


Moving mesh ...

Iteration 0
Moving mesh using displacement scaling : min:1  max:1
Checking faces in error :
    non-orthogonality > 65  degrees                        : 0
    faces with face pyramid volume < 1e-13                 : 0
    faces with face-decomposition tet quality < 1e-30      : 0
    faces with concavity > 80  degrees                     : 0
    faces with skewness > 4   (internal) or 20  (boundary) : 0
    faces with interpolation weights (0..1)  < 0.02        : 0
    faces with volume ratio of neighbour cells < 0.01      : 0
    faces with face twist < 0.02                           : 0
    faces on cells with determinant < 0.001                : 0
Successfully moved mesh
Moved mesh in = 0.36 s



Morph iteration 96
-----------------
Calculating patchDisplacement as distance to nearest surface point ...
    non-zone points : attract to nearest of all non-zone surfaces
    zone points     : attract to zone surface only

Wanted displacement : average:9.55838e-08 min:0 max:0.000645532
Calculated surface displacement in = 0.03 s


Detecting near surfaces ...
Overriding nearest with intersection of close gaps at 0 out of 69258 points.
Overriding displacement on features :
   implicit features    : true
   explicit features    : false
   multi-patch features : false

Attraction:
    linear   : max:(0.000596393 0.000247034 1.34445e-17) avg:(6.43237e-09 6.59689e-09 -7.75716e-12)
    feature  : max:(0.00459805 0.000605343 0) avg:(-4.92761e-05 -4.9282e-05 -7.79836e-12)
Feature analysis : total master points :69258 of which attracted to :
    feature point   : 0
    feature edge    : 640
    nearest surface : 68618
    rest            : 0

--> FOAM Warning : Displacement (-2.31665e-13 3.48262e-14 2.16578e-13) at mesh point 103104 coord (0.350098 0.3001 9.99999e-07) points through the surrounding patch faces
Smoothing displacement ...
Iteration 0
Iteration 10
Iteration 20
Displacement smoothed in = 0.48 s


Moving mesh ...

Iteration 0
Moving mesh using displacement scaling : min:1  max:1
Checking faces in error :
    non-orthogonality > 65  degrees                        : 0
    faces with face pyramid volume < 1e-13                 : 0
    faces with face-decomposition tet quality < 1e-30      : 0
    faces with concavity > 80  degrees                     : 0
    faces with skewness > 4   (internal) or 20  (boundary) : 0
    faces with interpolation weights (0..1)  < 0.02        : 0
    faces with volume ratio of neighbour cells < 0.01      : 0
    faces with face twist < 0.02                           : 0
    faces on cells with determinant < 0.001                : 0
Successfully moved mesh
Moved mesh in = 0.32 s



Morph iteration 97
-----------------
Calculating patchDisplacement as distance to nearest surface point ...
    non-zone points : attract to nearest of all non-zone surfaces
    zone points     : attract to zone surface only

Wanted displacement : average:9.63474e-08 min:0 max:0.000650701
Calculated surface displacement in = 0.02 s


Detecting near surfaces ...
Overriding nearest with intersection of close gaps at 0 out of 69258 points.
Overriding displacement on features :
   implicit features    : true
   explicit features    : false
   multi-patch features : false

Attraction:
    linear   : max:(0.00060117 0.000249013 4.03399e-19) avg:(6.48171e-09 6.64764e-09 -7.88804e-12)
    feature  : max:(0.00459805 0.000605343 0) avg:(-4.92759e-05 -4.92818e-05 -7.94042e-12)
Feature analysis : total master points :69258 of which attracted to :
    feature point   : 0
    feature edge    : 640
    nearest surface : 68618
    rest            : 0

--> FOAM Warning : Displacement (-1.97208e-13 -3.63778e-15 2.48177e-13) at mesh point 103104 coord (0.350098 0.3001 9.99999e-07) points through the surrounding patch faces
Smoothing displacement ...
Iteration 0
Iteration 10
Iteration 20
Displacement smoothed in = 0.47 s


Moving mesh ...

Iteration 0
Moving mesh using displacement scaling : min:1  max:1
Checking faces in error :
    non-orthogonality > 65  degrees                        : 0
    faces with face pyramid volume < 1e-13                 : 0
    faces with face-decomposition tet quality < 1e-30      : 0
    faces with concavity > 80  degrees                     : 0
    faces with skewness > 4   (internal) or 20  (boundary) : 0
    faces with interpolation weights (0..1)  < 0.02        : 0
    faces with volume ratio of neighbour cells < 0.01      : 0
    faces with face twist < 0.02                           : 0
    faces on cells with determinant < 0.001                : 0
Successfully moved mesh
Moved mesh in = 0.43 s



Morph iteration 98
-----------------
Calculating patchDisplacement as distance to nearest surface point ...
    non-zone points : attract to nearest of all non-zone surfaces
    zone points     : attract to zone surface only

Wanted displacement : average:9.71635e-08 min:0 max:0.000656225
Calculated surface displacement in = 0.03 s


Detecting near surfaces ...
Overriding nearest with intersection of close gaps at 0 out of 69258 points.
Overriding displacement on features :
   implicit features    : true
   explicit features    : false
   multi-patch features : false

Attraction:
    linear   : max:(0.000606273 0.000251126 8.25857e-21) avg:(6.53462e-09 6.70203e-09 -8.1265e-12)
    feature  : max:(0.00459805 0.000605343 0) avg:(-4.92757e-05 -4.92816e-05 -8.10631e-12)
Feature analysis : total master points :69258 of which attracted to :
    feature point   : 0
    feature edge    : 640
    nearest surface : 68618
    rest            : 0

--> FOAM Warning : Displacement (-1.62072e-13 -4.36768e-14 2.82794e-13) at mesh point 103104 coord (0.350098 0.3001 9.99999e-07) points through the surrounding patch faces
Smoothing displacement ...
Iteration 0
Iteration 10
Iteration 20
Displacement smoothed in = 0.47 s


Moving mesh ...

Iteration 0
Moving mesh using displacement scaling : min:1  max:1
Checking faces in error :
    non-orthogonality > 65  degrees                        : 0
    faces with face pyramid volume < 1e-13                 : 0
    faces with face-decomposition tet quality < 1e-30      : 0
    faces with concavity > 80  degrees                     : 0
    faces with skewness > 4   (internal) or 20  (boundary) : 0
    faces with interpolation weights (0..1)  < 0.02        : 0
    faces with volume ratio of neighbour cells < 0.01      : 0
    faces with face twist < 0.02                           : 0
    faces on cells with determinant < 0.001                : 0
Successfully moved mesh
Moved mesh in = 0.37 s



Morph iteration 99
-----------------
Calculating patchDisplacement as distance to nearest surface point ...
    non-zone points : attract to nearest of all non-zone surfaces
    zone points     : attract to zone surface only

Wanted displacement : average:9.80364e-08 min:0 max:0.00066213
Calculated surface displacement in = 0.02 s


Detecting near surfaces ...
Overriding nearest with intersection of close gaps at 0 out of 69258 points.
Overriding displacement on features :
   implicit features    : true
   explicit features    : false
   multi-patch features : false

Attraction:
    linear   : max:(0.000253386 0.000611728 0) avg:(6.59135e-09 6.76034e-09 -8.31655e-12)
    feature  : max:(0.00459805 0.000605343 0) avg:(-4.92756e-05 -4.92815e-05 -8.29689e-12)
Feature analysis : total master points :69258 of which attracted to :
    feature point   : 0
    feature edge    : 640
    nearest surface : 68618
    rest            : 0

--> FOAM Warning : Displacement (-1.16573e-15 5.55112e-17 2.05877e-16) at mesh point 103099 coord (0.5 0.45 1e-06) points through the surrounding patch faces
Smoothing displacement ...
Iteration 0
Iteration 10
Iteration 20
Displacement smoothed in = 0.44 s


Moving mesh ...

Iteration 0
Moving mesh using displacement scaling : min:1  max:1
Checking faces in error :
    non-orthogonality > 65  degrees                        : 0
    faces with face pyramid volume < 1e-13                 : 0
    faces with face-decomposition tet quality < 1e-30      : 0
    faces with concavity > 80  degrees                     : 0
    faces with skewness > 4   (internal) or 20  (boundary) : 0
    faces with interpolation weights (0..1)  < 0.02        : 0
    faces with volume ratio of neighbour cells < 0.01      : 0
    faces with face twist < 0.02                           : 0
    faces on cells with determinant < 0.001                : 0
Successfully moved mesh
Moved mesh in = 0.35 s


Repatching faces according to nearest surface ...
Repatched 0 faces in = 0.22 s


Edge intersection testing:
    Number of edges             : 557964
    Number of edges to retest   : 211888
    Number of intersected edges : 68752
Merging 19728 sets of faces.

Edge intersection testing:
    Number of edges             : 538028
    Number of edges to retest   : 79608
    Number of intersected edges : 48816

Undo iteration 0
----------------
Checking faces in error :
    non-orthogonality > 65  degrees                        : 0
    faces with face pyramid volume < 1e-13                 : 0
    faces with face-decomposition tet quality < 1e-30      : 0
    faces with concavity > 80  degrees                     : 0
    faces with skewness > 4   (internal) or 20  (boundary) : 0
    faces with interpolation weights (0..1)  < 0.02        : 0
    faces with volume ratio of neighbour cells < 0.01      : 0
    faces with face twist < 0.02                           : 0
    faces on cells with determinant < 0.001                : 0

Merging all points on surface that
- are used by only two boundary faces and
- make an angle with a cosine of more than 0.5.

Removing 19736 straight edge points ...

Edge intersection testing:
    Number of edges             : 538028
    Number of edges to retest   : 79608
    Number of intersected edges : 48816

Undo iteration 0
----------------
Checking faces in error :
    non-orthogonality > 65  degrees                        : 0
    faces with face pyramid volume < 1e-13                 : 0
    faces with face-decomposition tet quality < 1e-30      : 0
    faces with concavity > 80  degrees                     : 0
    faces with skewness > 4   (internal) or 20  (boundary) : 0
    faces with interpolation weights (0..1)  < 0.02        : 0
    faces with volume ratio of neighbour cells < 0.01      : 0
    faces with face twist < 0.02                           : 0
    faces on cells with determinant < 0.001                : 0
Snapped mesh : cells:168880  faces:538028  points:201177
Cells per refinement level:
    0	0
    1	0
    2	12096
    3	143272
    4	4584
    5	8928
Writing mesh to time constant
Wrote mesh in = 2.12 s.
Mesh snapped in = 82.57 s.
Checking final mesh ...
Checking faces in error :
    non-orthogonality > 65  degrees                        : 0
    faces with face pyramid volume < 1e-13                 : 0
    faces with face-decomposition tet quality < 1e-30      : 0
    faces with concavity > 80  degrees                     : 0
    faces with skewness > 4   (internal) or 20  (boundary) : 0
    faces with interpolation weights (0..1)  < 0.02        : 0
    faces with volume ratio of neighbour cells < 0.01      : 0
    faces with face twist < 0.02                           : 0
    faces on cells with determinant < 0.001                : 0
Finished meshing without any errors
Finished meshing in = 93.14 s.
End

